/*---------------------------------------------------------------------------*\
  =========                 |
  \\      /  F ield         | OpenFOAM: The Open Source CFD Toolbox
   \\    /   O peration     | Website:  https://openfoam.org
    \\  /    A nd           | Version:  11
     \\/     M anipulation  |
\*---------------------------------------------------------------------------*/
Build  : 11-e1fc8c682ae6
Exec   : foamRun
Date   : Oct 10 2024
Time   : 19:13:11
Host   : "ubuntu"
PID    : 21777
I/O    : uncollated
Case   : /home/wt/OpenFOAM/wt-11/run/pitzDailySteady
nProcs : 1
sigFpe : Enabling floating point exception trapping (FOAM_SIGFPE).
fileModificationChecking : Monitoring run-time modified files using timeStampMaster (fileModificationSkew 10)
allowSystemOperations : Allowing user-supplied system call operations

// * * * * * * * * * * * * * * * * * * * * * * * * * * * * * * * * * * * * * //
Create time

Create mesh for time = 0

Selecting solver incompressibleFluid
Selecting viscosity model constant
Selecting turbulence model type RAS
Selecting RAS turbulence model kEpsilon
Selecting generalised Newtonian model Newtonian
RAS
{
    model           kEpsilon;
    turbulence      on;
    printCoeffs     on;
    viscosityModel  Newtonian;
    Cmu             0.09;
    C1              1.44;
    C2              1.92;
    C3              0;
    sigmak          1;
    sigmaEps        1.3;
}

No MRF models present


SIMPLE: Convergence criteria found
        p: tolerance 0.01
        U: tolerance 0.001
        "(k|epsilon|omega|f|v2)": tolerance 0.001


SIMPLE: Operating solver in steady-state mode with 1 outer corrector
SIMPLE: Operating solver in SIMPLE mode



Starting time loop

streamlines streamlines:
    automatic track length specified through number of sub cycles : 5

streamlines streamlines write:
    Seeded 10 particles
    Sampled 114 locations
Time = 1s

smoothSolver:  Solving for Ux, Initial residual = 1, Final residual = 0.0538101, No Iterations 1
smoothSolver:  Solving for Uy, Initial residual = 1, Final residual = 0.030925, No Iterations 2
GAMG:  Solving for p, Initial residual = 1, Final residual = 0.068427, No Iterations 17
time step continuity errors : sum local = 1.19733, global = 0.179883, cumulative = 0.179883
smoothSolver:  Solving for epsilon, Initial residual = 0.232889, Final residual = 0.0114607, No Iterations 3
bounding epsilon, min: -1.98669 max: 1033.28 average: 35.8882
smoothSolver:  Solving for k, Initial residual = 1, Final residual = 0.0454605, No Iterations 3
ExecutionTime = 0.140428 s  ClockTime = 0 s

Time = 2s

smoothSolver:  Solving for Ux, Initial residual = 0.438341, Final residual = 0.0305665, No Iterations 5
smoothSolver:  Solving for Uy, Initial residual = 0.290558, Final residual = 0.0257879, No Iterations 4
GAMG:  Solving for p, Initial residual = 0.0522488, Final residual = 0.0043518, No Iterations 15
time step continuity errors : sum local = 3.97191, global = 0.123252, cumulative = 0.303135
smoothSolver:  Solving for epsilon, Initial residual = 0.176549, Final residual = 0.0103011, No Iterations 3
bounding epsilon, min: -10.4236 max: 23808.9 average: 70.8787
smoothSolver:  Solving for k, Initial residual = 0.436476, Final residual = 0.0394789, No Iterations 3
ExecutionTime = 0.159869 s  ClockTime = 1 s

Time = 3s

smoothSolver:  Solving for Ux, Initial residual = 0.1242, Final residual = 0.0111194, No Iterations 4
smoothSolver:  Solving for Uy, Initial residual = 0.216882, Final residual = 0.0156456, No Iterations 4
GAMG:  Solving for p, Initial residual = 0.142752, Final residual = 0.0119489, No Iterations 6
time step continuity errors : sum local = 3.34308, global = 0.328384, cumulative = 0.631519
smoothSolver:  Solving for epsilon, Initial residual = 0.175556, Final residual = 0.00809998, No Iterations 2
bounding epsilon, min: -898.388 max: 45796.6 average: 117.634
smoothSolver:  Solving for k, Initial residual = 0.19177, Final residual = 0.0156198, No Iterations 3
ExecutionTime = 0.173839 s  ClockTime = 1 s

Time = 4s

smoothSolver:  Solving for Ux, Initial residual = 0.0677461, Final residual = 0.00434822, No Iterations 5
smoothSolver:  Solving for Uy, Initial residual = 0.107483, Final residual = 0.00821404, No Iterations 4
GAMG:  Solving for p, Initial residual = 0.106101, Final residual = 0.0105578, No Iterations 6
time step continuity errors : sum local = 1.74652, global = 0.177148, cumulative = 0.808667
smoothSolver:  Solving for epsilon, Initial residual = 0.0706261, Final residual = 0.00578413, No Iterations 2
bounding epsilon, min: -172.109 max: 53277.1 average: 128.97
smoothSolver:  Solving for k, Initial residual = 0.124699, Final residual = 0.0111252, No Iterations 3
ExecutionTime = 0.188103 s  ClockTime = 1 s

Time = 5s

smoothSolver:  Solving for Ux, Initial residual = 0.0568161, Final residual = 0.00396899, No Iterations 5
smoothSolver:  Solving for Uy, Initial residual = 0.0866044, Final residual = 0.00827386, No Iterations 4
GAMG:  Solving for p, Initial residual = 0.104687, Final residual = 0.00807965, No Iterations 4
time step continuity errors : sum local = 1.02739, global = 0.0926022, cumulative = 0.901269
smoothSolver:  Solving for epsilon, Initial residual = 0.0924274, Final residual = 0.00558065, No Iterations 2
smoothSolver:  Solving for k, Initial residual = 0.0863067, Final residual = 0.00509516, No Iterations 4
ExecutionTime = 0.201484 s  ClockTime = 1 s

Time = 6s

smoothSolver:  Solving for Ux, Initial residual = 0.0518462, Final residual = 0.00389671, No Iterations 5
smoothSolver:  Solving for Uy, Initial residual = 0.0724358, Final residual = 0.00491578, No Iterations 5
GAMG:  Solving for p, Initial residual = 0.0866798, Final residual = 0.00650242, No Iterations 4
time step continuity errors : sum local = 0.769036, global = -0.0579863, cumulative = 0.843283
smoothSolver:  Solving for epsilon, Initial residual = 0.0532597, Final residual = 0.0030127, No Iterations 3
smoothSolver:  Solving for k, Initial residual = 0.0688441, Final residual = 0.00474344, No Iterations 4
ExecutionTime = 0.216307 s  ClockTime = 1 s

Time = 7s

smoothSolver:  Solving for Ux, Initial residual = 0.0479749, Final residual = 0.00385981, No Iterations 5
smoothSolver:  Solving for Uy, Initial residual = 0.0632954, Final residual = 0.00456312, No Iterations 5
GAMG:  Solving for p, Initial residual = 0.0715262, Final residual = 0.00458829, No Iterations 4
time step continuity errors : sum local = 0.54064, global = -0.0673334, cumulative = 0.77595
smoothSolver:  Solving for epsilon, Initial residual = 0.0478336, Final residual = 0.00273327, No Iterations 3
smoothSolver:  Solving for k, Initial residual = 0.0581633, Final residual = 0.00422243, No Iterations 4
ExecutionTime = 0.229714 s  ClockTime = 1 s

Time = 8s

smoothSolver:  Solving for Ux, Initial residual = 0.0441947, Final residual = 0.00377885, No Iterations 5
smoothSolver:  Solving for Uy, Initial residual = 0.0584354, Final residual = 0.00434173, No Iterations 5
GAMG:  Solving for p, Initial residual = 0.0622712, Final residual = 0.00510467, No Iterations 3
time step continuity errors : sum local = 0.605643, global = 0.0148904, cumulative = 0.79084
smoothSolver:  Solving for epsilon, Initial residual = 0.0408062, Final residual = 0.0027531, No Iterations 3
smoothSolver:  Solving for k, Initial residual = 0.0515892, Final residual = 0.00389043, No Iterations 4
ExecutionTime = 0.242678 s  ClockTime = 1 s

Time = 9s

smoothSolver:  Solving for Ux, Initial residual = 0.0408727, Final residual = 0.00364296, No Iterations 5
smoothSolver:  Solving for Uy, Initial residual = 0.055182, Final residual = 0.00421445, No Iterations 5
GAMG:  Solving for p, Initial residual = 0.0568796, Final residual = 0.0047455, No Iterations 3
time step continuity errors : sum local = 0.569032, global = 0.00270303, cumulative = 0.793543
smoothSolver:  Solving for epsilon, Initial residual = 0.0421654, Final residual = 0.00288154, No Iterations 3
smoothSolver:  Solving for k, Initial residual = 0.0482391, Final residual = 0.00373143, No Iterations 4
ExecutionTime = 0.256586 s  ClockTime = 1 s

Time = 10s

smoothSolver:  Solving for Ux, Initial residual = 0.0385475, Final residual = 0.0035151, No Iterations 5
smoothSolver:  Solving for Uy, Initial residual = 0.0512219, Final residual = 0.004032, No Iterations 5
GAMG:  Solving for p, Initial residual = 0.0511439, Final residual = 0.00393786, No Iterations 3
time step continuity errors : sum local = 0.483766, global = 0.0135891, cumulative = 0.807132
smoothSolver:  Solving for epsilon, Initial residual = 0.04062, Final residual = 0.00294634, No Iterations 3
smoothSolver:  Solving for k, Initial residual = 0.0450741, Final residual = 0.00351754, No Iterations 4
ExecutionTime = 0.270232 s  ClockTime = 1 s

Time = 11s

smoothSolver:  Solving for Ux, Initial residual = 0.0364155, Final residual = 0.0033731, No Iterations 5
smoothSolver:  Solving for Uy, Initial residual = 0.0483305, Final residual = 0.00390655, No Iterations 5
GAMG:  Solving for p, Initial residual = 0.0496771, Final residual = 0.00343242, No Iterations 3
time step continuity errors : sum local = 0.446609, global = 0.0102881, cumulative = 0.81742
smoothSolver:  Solving for epsilon, Initial residual = 0.0395389, Final residual = 0.00299781, No Iterations 3
smoothSolver:  Solving for k, Initial residual = 0.0425857, Final residual = 0.00333424, No Iterations 4
ExecutionTime = 0.283844 s  ClockTime = 1 s

Time = 12s

smoothSolver:  Solving for Ux, Initial residual = 0.0341641, Final residual = 0.00321404, No Iterations 5
smoothSolver:  Solving for Uy, Initial residual = 0.0465831, Final residual = 0.00381544, No Iterations 5
GAMG:  Solving for p, Initial residual = 0.0479465, Final residual = 0.0034051, No Iterations 3
time step continuity errors : sum local = 0.39987, global = 0.00651988, cumulative = 0.82394
smoothSolver:  Solving for epsilon, Initial residual = 0.0372402, Final residual = 0.00293875, No Iterations 3
smoothSolver:  Solving for k, Initial residual = 0.040664, Final residual = 0.00320504, No Iterations 4
ExecutionTime = 0.298417 s  ClockTime = 1 s

Time = 13s

smoothSolver:  Solving for Ux, Initial residual = 0.0322634, Final residual = 0.00304332, No Iterations 5
smoothSolver:  Solving for Uy, Initial residual = 0.0448902, Final residual = 0.00371952, No Iterations 5
GAMG:  Solving for p, Initial residual = 0.0493952, Final residual = 0.00320677, No Iterations 3
time step continuity errors : sum local = 0.383428, global = 0.00578609, cumulative = 0.829726
smoothSolver:  Solving for epsilon, Initial residual = 0.0358746, Final residual = 0.00292223, No Iterations 3
smoothSolver:  Solving for k, Initial residual = 0.0387474, Final residual = 0.00304401, No Iterations 4
ExecutionTime = 0.311727 s  ClockTime = 1 s

Time = 14s

smoothSolver:  Solving for Ux, Initial residual = 0.0306875, Final residual = 0.00288185, No Iterations 5
smoothSolver:  Solving for Uy, Initial residual = 0.0435788, Final residual = 0.00363654, No Iterations 5
GAMG:  Solving for p, Initial residual = 0.050417, Final residual = 0.00308403, No Iterations 3
time step continuity errors : sum local = 0.374938, global = 0.0032476, cumulative = 0.832974
smoothSolver:  Solving for epsilon, Initial residual = 0.0346282, Final residual = 0.00287942, No Iterations 3
smoothSolver:  Solving for k, Initial residual = 0.0367721, Final residual = 0.002879, No Iterations 4
ExecutionTime = 0.326051 s  ClockTime = 1 s

Time = 15s

smoothSolver:  Solving for Ux, Initial residual = 0.0289984, Final residual = 0.00272812, No Iterations 5
smoothSolver:  Solving for Uy, Initial residual = 0.0427927, Final residual = 0.00355914, No Iterations 5
GAMG:  Solving for p, Initial residual = 0.0482373, Final residual = 0.00318389, No Iterations 3
time step continuity errors : sum local = 0.357267, global = 0.000290183, cumulative = 0.833264
smoothSolver:  Solving for epsilon, Initial residual = 0.0327352, Final residual = 0.0027774, No Iterations 3
smoothSolver:  Solving for k, Initial residual = 0.034943, Final residual = 0.00273595, No Iterations 4
ExecutionTime = 0.339724 s  ClockTime = 1 s

Time = 16s

smoothSolver:  Solving for Ux, Initial residual = 0.0272045, Final residual = 0.00258224, No Iterations 5
smoothSolver:  Solving for Uy, Initial residual = 0.0415076, Final residual = 0.00348856, No Iterations 5
GAMG:  Solving for p, Initial residual = 0.0458175, Final residual = 0.00319153, No Iterations 3
time step continuity errors : sum local = 0.345737, global = -0.000366674, cumulative = 0.832897
smoothSolver:  Solving for epsilon, Initial residual = 0.0298129, Final residual = 0.00267189, No Iterations 3
smoothSolver:  Solving for k, Initial residual = 0.033464, Final residual = 0.00261829, No Iterations 4
ExecutionTime = 0.353367 s  ClockTime = 1 s

Time = 17s

smoothSolver:  Solving for Ux, Initial residual = 0.0255485, Final residual = 0.0024464, No Iterations 5
smoothSolver:  Solving for Uy, Initial residual = 0.0400513, Final residual = 0.00342833, No Iterations 5
GAMG:  Solving for p, Initial residual = 0.0431377, Final residual = 0.00327231, No Iterations 3
time step continuity errors : sum local = 0.345125, global = -0.00244891, cumulative = 0.830449
smoothSolver:  Solving for epsilon, Initial residual = 0.0276848, Final residual = 0.0025219, No Iterations 3
smoothSolver:  Solving for k, Initial residual = 0.0317833, Final residual = 0.0024784, No Iterations 4
ExecutionTime = 0.369824 s  ClockTime = 1 s

Time = 18s

smoothSolver:  Solving for Ux, Initial residual = 0.0241153, Final residual = 0.00231696, No Iterations 5
smoothSolver:  Solving for Uy, Initial residual = 0.0386076, Final residual = 0.00336693, No Iterations 5
GAMG:  Solving for p, Initial residual = 0.040871, Final residual = 0.00341167, No Iterations 3
time step continuity errors : sum local = 0.344262, global = -0.00467956, cumulative = 0.825769
smoothSolver:  Solving for epsilon, Initial residual = 0.0258948, Final residual = 0.00239476, No Iterations 3
smoothSolver:  Solving for k, Initial residual = 0.0301193, Final residual = 0.00233587, No Iterations 4
ExecutionTime = 0.383636 s  ClockTime = 1 s

Time = 19s

smoothSolver:  Solving for Ux, Initial residual = 0.0228259, Final residual = 0.00219274, No Iterations 5
smoothSolver:  Solving for Uy, Initial residual = 0.0370864, Final residual = 0.00330218, No Iterations 5
GAMG:  Solving for p, Initial residual = 0.0390706, Final residual = 0.00345471, No Iterations 3
time step continuity errors : sum local = 0.338287, global = -0.0059002, cumulative = 0.819869
smoothSolver:  Solving for epsilon, Initial residual = 0.0243634, Final residual = 0.00225905, No Iterations 3
smoothSolver:  Solving for k, Initial residual = 0.0287448, Final residual = 0.00222971, No Iterations 4
ExecutionTime = 0.397676 s  ClockTime = 1 s

Time = 20s

smoothSolver:  Solving for Ux, Initial residual = 0.0216085, Final residual = 0.00207238, No Iterations 5
smoothSolver:  Solving for Uy, Initial residual = 0.0358353, Final residual = 0.00324068, No Iterations 5
GAMG:  Solving for p, Initial residual = 0.0379426, Final residual = 0.00340427, No Iterations 3
time step continuity errors : sum local = 0.327824, global = -0.00587192, cumulative = 0.813997
smoothSolver:  Solving for epsilon, Initial residual = 0.0228092, Final residual = 0.00211014, No Iterations 3
smoothSolver:  Solving for k, Initial residual = 0.027246, Final residual = 0.00210471, No Iterations 4
ExecutionTime = 0.41169 s  ClockTime = 1 s

Time = 21s

smoothSolver:  Solving for Ux, Initial residual = 0.0203939, Final residual = 0.0019565, No Iterations 5
smoothSolver:  Solving for Uy, Initial residual = 0.0348122, Final residual = 0.00318618, No Iterations 5
GAMG:  Solving for p, Initial residual = 0.0361484, Final residual = 0.0034316, No Iterations 3
time step continuity errors : sum local = 0.317432, global = -0.00832076, cumulative = 0.805676
smoothSolver:  Solving for epsilon, Initial residual = 0.0218156, Final residual = 0.00201034, No Iterations 3
smoothSolver:  Solving for k, Initial residual = 0.0261942, Final residual = 0.00201829, No Iterations 4
ExecutionTime = 0.42535 s  ClockTime = 1 s

Time = 22s

smoothSolver:  Solving for Ux, Initial residual = 0.0192214, Final residual = 0.00184662, No Iterations 5
smoothSolver:  Solving for Uy, Initial residual = 0.0338194, Final residual = 0.00313018, No Iterations 5
GAMG:  Solving for p, Initial residual = 0.0338071, Final residual = 0.00337191, No Iterations 3
time step continuity errors : sum local = 0.299164, global = -0.00976282, cumulative = 0.795913
smoothSolver:  Solving for epsilon, Initial residual = 0.0206453, Final residual = 0.00188662, No Iterations 3
smoothSolver:  Solving for k, Initial residual = 0.0251381, Final residual = 0.00192793, No Iterations 4
ExecutionTime = 0.438937 s  ClockTime = 1 s

Time = 23s

smoothSolver:  Solving for Ux, Initial residual = 0.0181195, Final residual = 0.00174122, No Iterations 5
smoothSolver:  Solving for Uy, Initial residual = 0.0327878, Final residual = 0.00306987, No Iterations 5
GAMG:  Solving for p, Initial residual = 0.0334676, Final residual = 0.0032423, No Iterations 3
time step continuity errors : sum local = 0.282623, global = -0.00950976, cumulative = 0.786403
smoothSolver:  Solving for epsilon, Initial residual = 0.0195936, Final residual = 0.00178369, No Iterations 3
smoothSolver:  Solving for k, Initial residual = 0.0240538, Final residual = 0.00183766, No Iterations 4
ExecutionTime = 0.452747 s  ClockTime = 1 s

Time = 24s

smoothSolver:  Solving for Ux, Initial residual = 0.0170883, Final residual = 0.00164242, No Iterations 5
smoothSolver:  Solving for Uy, Initial residual = 0.0316732, Final residual = 0.00301014, No Iterations 5
GAMG:  Solving for p, Initial residual = 0.0324091, Final residual = 0.00322181, No Iterations 3
time step continuity errors : sum local = 0.274456, global = -0.0107399, cumulative = 0.775664
smoothSolver:  Solving for epsilon, Initial residual = 0.0185106, Final residual = 0.00167474, No Iterations 3
smoothSolver:  Solving for k, Initial residual = 0.0231494, Final residual = 0.00176465, No Iterations 4
ExecutionTime = 0.46591 s  ClockTime = 1 s

Time = 25s

smoothSolver:  Solving for Ux, Initial residual = 0.0161328, Final residual = 0.00154754, No Iterations 5
smoothSolver:  Solving for Uy, Initial residual = 0.0307561, Final residual = 0.00294575, No Iterations 5
GAMG:  Solving for p, Initial residual = 0.030899, Final residual = 0.00220203, No Iterations 4
time step continuity errors : sum local = 0.181001, global = 0.0269625, cumulative = 0.802626
smoothSolver:  Solving for epsilon, Initial residual = 0.0177163, Final residual = 0.00157662, No Iterations 3
smoothSolver:  Solving for k, Initial residual = 0.0223402, Final residual = 0.0017005, No Iterations 4
ExecutionTime = 0.480141 s  ClockTime = 1 s

Time = 26s

smoothSolver:  Solving for Ux, Initial residual = 0.0151735, Final residual = 0.00145197, No Iterations 5
smoothSolver:  Solving for Uy, Initial residual = 0.0299539, Final residual = 0.00287959, No Iterations 5
GAMG:  Solving for p, Initial residual = 0.0306095, Final residual = 0.00283508, No Iterations 3
time step continuity errors : sum local = 0.227832, global = -0.0124851, cumulative = 0.790141
smoothSolver:  Solving for epsilon, Initial residual = 0.0168281, Final residual = 0.00149365, No Iterations 3
smoothSolver:  Solving for k, Initial residual = 0.0214676, Final residual = 0.0016205, No Iterations 4
ExecutionTime = 0.49368 s  ClockTime = 1 s

Time = 27s

smoothSolver:  Solving for Ux, Initial residual = 0.0143247, Final residual = 0.00137426, No Iterations 5
smoothSolver:  Solving for Uy, Initial residual = 0.0290175, Final residual = 0.00280933, No Iterations 5
GAMG:  Solving for p, Initial residual = 0.0307524, Final residual = 0.00228294, No Iterations 4
time step continuity errors : sum local = 0.180715, global = 0.0257004, cumulative = 0.815841
smoothSolver:  Solving for epsilon, Initial residual = 0.0160713, Final residual = 0.0014212, No Iterations 3
smoothSolver:  Solving for k, Initial residual = 0.0208344, Final residual = 0.00156704, No Iterations 4
ExecutionTime = 0.508316 s  ClockTime = 1 s

Time = 28s

smoothSolver:  Solving for Ux, Initial residual = 0.0134407, Final residual = 0.00128632, No Iterations 5
smoothSolver:  Solving for Uy, Initial residual = 0.0280672, Final residual = 0.00272961, No Iterations 5
GAMG:  Solving for p, Initial residual = 0.0285605, Final residual = 0.0021495, No Iterations 4
time step continuity errors : sum local = 0.163827, global = 0.0259232, cumulative = 0.841765
smoothSolver:  Solving for epsilon, Initial residual = 0.015413, Final residual = 0.00134814, No Iterations 3
smoothSolver:  Solving for k, Initial residual = 0.0200744, Final residual = 0.00149943, No Iterations 4
ExecutionTime = 0.522636 s  ClockTime = 1 s

Time = 29s

smoothSolver:  Solving for Ux, Initial residual = 0.0126178, Final residual = 0.0012105, No Iterations 5
smoothSolver:  Solving for Uy, Initial residual = 0.0272616, Final residual = 0.00266301, No Iterations 5
GAMG:  Solving for p, Initial residual = 0.0293906, Final residual = 0.00224586, No Iterations 4
time step continuity errors : sum local = 0.167104, global = 0.0272435, cumulative = 0.869008
smoothSolver:  Solving for epsilon, Initial residual = 0.0146601, Final residual = 0.00128961, No Iterations 3
smoothSolver:  Solving for k, Initial residual = 0.0193873, Final residual = 0.00144171, No Iterations 4
ExecutionTime = 0.536783 s  ClockTime = 1 s

Time = 30s

smoothSolver:  Solving for Ux, Initial residual = 0.0118659, Final residual = 0.00113791, No Iterations 5
smoothSolver:  Solving for Uy, Initial residual = 0.0264612, Final residual = 0.00259097, No Iterations 5
GAMG:  Solving for p, Initial residual = 0.0303841, Final residual = 0.00228178, No Iterations 4
time step continuity errors : sum local = 0.166772, global = 0.0275538, cumulative = 0.896562
smoothSolver:  Solving for epsilon, Initial residual = 0.013983, Final residual = 0.00123735, No Iterations 3
smoothSolver:  Solving for k, Initial residual = 0.0187089, Final residual = 0.00138942, No Iterations 4
ExecutionTime = 0.551278 s  ClockTime = 1 s

Time = 31s

smoothSolver:  Solving for Ux, Initial residual = 0.0111235, Final residual = 0.00106869, No Iterations 5
smoothSolver:  Solving for Uy, Initial residual = 0.0256178, Final residual = 0.00252228, No Iterations 5
GAMG:  Solving for p, Initial residual = 0.0300275, Final residual = 0.00233807, No Iterations 4
time step continuity errors : sum local = 0.16669, global = 0.0296637, cumulative = 0.926226
smoothSolver:  Solving for epsilon, Initial residual = 0.0134054, Final residual = 0.00117557, No Iterations 3
smoothSolver:  Solving for k, Initial residual = 0.0180926, Final residual = 0.00133975, No Iterations 4
ExecutionTime = 0.565399 s  ClockTime = 1 s

Time = 32s

smoothSolver:  Solving for Ux, Initial residual = 0.0104307, Final residual = 0.00100445, No Iterations 5
smoothSolver:  Solving for Uy, Initial residual = 0.024914, Final residual = 0.00245566, No Iterations 5
GAMG:  Solving for p, Initial residual = 0.0306153, Final residual = 0.00230428, No Iterations 4
time step continuity errors : sum local = 0.159946, global = 0.0289424, cumulative = 0.955168
smoothSolver:  Solving for epsilon, Initial residual = 0.0128576, Final residual = 0.00112686, No Iterations 3
smoothSolver:  Solving for k, Initial residual = 0.017468, Final residual = 0.00128886, No Iterations 4
ExecutionTime = 0.579698 s  ClockTime = 1 s

Time = 33s

smoothSolver:  Solving for Ux, Initial residual = 0.00977994, Final residual = 0.000943291, No Iterations 5
smoothSolver:  Solving for Uy, Initial residual = 0.0240663, Final residual = 0.00239145, No Iterations 5
GAMG:  Solving for p, Initial residual = 0.0288721, Final residual = 0.00224061, No Iterations 4
time step continuity errors : sum local = 0.151778, global = 0.0278189, cumulative = 0.982987
smoothSolver:  Solving for epsilon, Initial residual = 0.0123088, Final residual = 0.00108311, No Iterations 3
smoothSolver:  Solving for k, Initial residual = 0.0168985, Final residual = 0.00124755, No Iterations 4
ExecutionTime = 0.594247 s  ClockTime = 1 s

Time = 34s

smoothSolver:  Solving for Ux, Initial residual = 0.0091542, Final residual = 0.000886839, No Iterations 5
smoothSolver:  Solving for Uy, Initial residual = 0.0233433, Final residual = 0.00233128, No Iterations 5
GAMG:  Solving for p, Initial residual = 0.0277438, Final residual = 0.00217492, No Iterations 4
time step continuity errors : sum local = 0.144345, global = 0.0266757, cumulative = 1.00966
smoothSolver:  Solving for epsilon, Initial residual = 0.011883, Final residual = 0.00105156, No Iterations 3
smoothSolver:  Solving for k, Initial residual = 0.0164029, Final residual = 0.00120967, No Iterations 4
ExecutionTime = 0.608949 s  ClockTime = 1 s

Time = 35s

smoothSolver:  Solving for Ux, Initial residual = 0.00859833, Final residual = 0.000834891, No Iterations 5
smoothSolver:  Solving for Uy, Initial residual = 0.022755, Final residual = 0.00147027, No Iterations 6
GAMG:  Solving for p, Initial residual = 0.0279062, Final residual = 0.00197066, No Iterations 4
time step continuity errors : sum local = 0.128187, global = 0.0213975, cumulative = 1.03106
smoothSolver:  Solving for epsilon, Initial residual = 0.011395, Final residual = 0.00100864, No Iterations 3
smoothSolver:  Solving for k, Initial residual = 0.0158497, Final residual = 0.00116558, No Iterations 4
ExecutionTime = 0.623656 s  ClockTime = 1 s

Time = 36s

smoothSolver:  Solving for Ux, Initial residual = 0.00811624, Final residual = 0.000791718, No Iterations 5
smoothSolver:  Solving for Uy, Initial residual = 0.0218541, Final residual = 0.00142376, No Iterations 6
GAMG:  Solving for p, Initial residual = 0.027123, Final residual = 0.00210173, No Iterations 4
time step continuity errors : sum local = 0.133269, global = 0.0236414, cumulative = 1.0547
smoothSolver:  Solving for epsilon, Initial residual = 0.0109425, Final residual = 0.00097471, No Iterations 3
smoothSolver:  Solving for k, Initial residual = 0.0153876, Final residual = 0.00113177, No Iterations 4
ExecutionTime = 0.638197 s  ClockTime = 1 s

Time = 37s

smoothSolver:  Solving for Ux, Initial residual = 0.00763333, Final residual = 0.000747893, No Iterations 5
smoothSolver:  Solving for Uy, Initial residual = 0.0211807, Final residual = 0.00138782, No Iterations 6
GAMG:  Solving for p, Initial residual = 0.0267019, Final residual = 0.00184869, No Iterations 4
time step continuity errors : sum local = 0.114932, global = 0.0185224, cumulative = 1.07322
smoothSolver:  Solving for epsilon, Initial residual = 0.0105831, Final residual = 0.000939987, No Iterations 3
smoothSolver:  Solving for k, Initial residual = 0.0149115, Final residual = 0.00109185, No Iterations 4
ExecutionTime = 0.652427 s  ClockTime = 1 s

Time = 38s

smoothSolver:  Solving for Ux, Initial residual = 0.0072061, Final residual = 0.000707581, No Iterations 5
smoothSolver:  Solving for Uy, Initial residual = 0.020626, Final residual = 0.00136479, No Iterations 6
GAMG:  Solving for p, Initial residual = 0.0278772, Final residual = 0.00194376, No Iterations 4
time step continuity errors : sum local = 0.119357, global = 0.0207285, cumulative = 1.09395
smoothSolver:  Solving for epsilon, Initial residual = 0.0102597, Final residual = 0.000909054, No Iterations 3
smoothSolver:  Solving for k, Initial residual = 0.0143805, Final residual = 0.00105515, No Iterations 4
ExecutionTime = 0.666884 s  ClockTime = 1 s

Time = 39s

smoothSolver:  Solving for Ux, Initial residual = 0.00681423, Final residual = 0.000671583, No Iterations 5
smoothSolver:  Solving for Uy, Initial residual = 0.0202834, Final residual = 0.00134471, No Iterations 6
GAMG:  Solving for p, Initial residual = 0.0261714, Final residual = 0.00190041, No Iterations 4
time step continuity errors : sum local = 0.113044, global = 0.0190554, cumulative = 1.11301
smoothSolver:  Solving for epsilon, Initial residual = 0.00977563, Final residual = 0.000878402, No Iterations 3
smoothSolver:  Solving for k, Initial residual = 0.0139103, Final residual = 0.00101669, No Iterations 4
ExecutionTime = 0.681716 s  ClockTime = 1 s

Time = 40s

smoothSolver:  Solving for Ux, Initial residual = 0.00642982, Final residual = 0.000637481, No Iterations 5
smoothSolver:  Solving for Uy, Initial residual = 0.0198522, Final residual = 0.0013305, No Iterations 6
GAMG:  Solving for p, Initial residual = 0.0255364, Final residual = 0.00178793, No Iterations 4
time step continuity errors : sum local = 0.10401, global = 0.0174364, cumulative = 1.13044
smoothSolver:  Solving for epsilon, Initial residual = 0.00947613, Final residual = 0.00084558, No Iterations 3
smoothSolver:  Solving for k, Initial residual = 0.0134595, Final residual = 0.000984204, No Iterations 4
ExecutionTime = 0.696684 s  ClockTime = 1 s

Time = 41s

smoothSolver:  Solving for Ux, Initial residual = 0.00611363, Final residual = 0.000606951, No Iterations 5
smoothSolver:  Solving for Uy, Initial residual = 0.0195437, Final residual = 0.0013182, No Iterations 6
GAMG:  Solving for p, Initial residual = 0.0270635, Final residual = 0.00240787, No Iterations 3
time step continuity errors : sum local = 0.140006, global = -0.0172906, cumulative = 1.11315
smoothSolver:  Solving for epsilon, Initial residual = 0.00913458, Final residual = 0.000806828, No Iterations 3
smoothSolver:  Solving for k, Initial residual = 0.0129536, Final residual = 0.000945305, No Iterations 4
ExecutionTime = 0.711019 s  ClockTime = 1 s

Time = 42s

smoothSolver:  Solving for Ux, Initial residual = 0.00584193, Final residual = 0.000582955, No Iterations 5
smoothSolver:  Solving for Uy, Initial residual = 0.0191991, Final residual = 0.00130354, No Iterations 6
GAMG:  Solving for p, Initial residual = 0.0252679, Final residual = 0.00222879, No Iterations 3
time step continuity errors : sum local = 0.12569, global = 0.010683, cumulative = 1.12384
smoothSolver:  Solving for epsilon, Initial residual = 0.00875086, Final residual = 0.000777724, No Iterations 3
smoothSolver:  Solving for k, Initial residual = 0.0125431, Final residual = 0.000908293, No Iterations 4
ExecutionTime = 0.724798 s  ClockTime = 1 s

Time = 43s

smoothSolver:  Solving for Ux, Initial residual = 0.00555851, Final residual = 0.000356383, No Iterations 6
smoothSolver:  Solving for Uy, Initial residual = 0.019064, Final residual = 0.0012978, No Iterations 6
GAMG:  Solving for p, Initial residual = 0.0259082, Final residual = 0.00232074, No Iterations 3
time step continuity errors : sum local = 0.128349, global = -0.00596303, cumulative = 1.11787
smoothSolver:  Solving for epsilon, Initial residual = 0.00853781, Final residual = 0.000744358, No Iterations 3
smoothSolver:  Solving for k, Initial residual = 0.0121118, Final residual = 0.000875318, No Iterations 4
ExecutionTime = 0.738919 s  ClockTime = 1 s

Time = 44s

smoothSolver:  Solving for Ux, Initial residual = 0.00529447, Final residual = 0.000340819, No Iterations 6
smoothSolver:  Solving for Uy, Initial residual = 0.018878, Final residual = 0.00130438, No Iterations 6
GAMG:  Solving for p, Initial residual = 0.0266928, Final residual = 0.00201325, No Iterations 3
time step continuity errors : sum local = 0.112326, global = 0.00838814, cumulative = 1.12626
smoothSolver:  Solving for epsilon, Initial residual = 0.00819428, Final residual = 0.00070669, No Iterations 3
smoothSolver:  Solving for k, Initial residual = 0.0117185, Final residual = 0.000846236, No Iterations 4
ExecutionTime = 0.752276 s  ClockTime = 1 s

Time = 45s

smoothSolver:  Solving for Ux, Initial residual = 0.00509021, Final residual = 0.000328954, No Iterations 6
smoothSolver:  Solving for Uy, Initial residual = 0.0189113, Final residual = 0.00130535, No Iterations 6
GAMG:  Solving for p, Initial residual = 0.0239952, Final residual = 0.00199181, No Iterations 3
time step continuity errors : sum local = 0.107742, global = 0.00705398, cumulative = 1.13332
smoothSolver:  Solving for epsilon, Initial residual = 0.00788104, Final residual = 0.000685976, No Iterations 3
smoothSolver:  Solving for k, Initial residual = 0.0112619, Final residual = 0.000809724, No Iterations 4
ExecutionTime = 0.765485 s  ClockTime = 1 s

Time = 46s

smoothSolver:  Solving for Ux, Initial residual = 0.00489442, Final residual = 0.000317486, No Iterations 6
smoothSolver:  Solving for Uy, Initial residual = 0.0188117, Final residual = 0.00130842, No Iterations 6
GAMG:  Solving for p, Initial residual = 0.024863, Final residual = 0.00181342, No Iterations 3
time step continuity errors : sum local = 0.0958363, global = 0.0141413, cumulative = 1.14746
smoothSolver:  Solving for epsilon, Initial residual = 0.00761496, Final residual = 0.000659936, No Iterations 3
smoothSolver:  Solving for k, Initial residual = 0.0108848, Final residual = 0.000780867, No Iterations 4
ExecutionTime = 0.77839 s  ClockTime = 1 s

Time = 47s

smoothSolver:  Solving for Ux, Initial residual = 0.00473495, Final residual = 0.000308177, No Iterations 6
smoothSolver:  Solving for Uy, Initial residual = 0.0186563, Final residual = 0.00130794, No Iterations 6
GAMG:  Solving for p, Initial residual = 0.025825, Final residual = 0.00180482, No Iterations 3
time step continuity errors : sum local = 0.0966861, global = 0.0158851, cumulative = 1.16334
smoothSolver:  Solving for epsilon, Initial residual = 0.00737749, Final residual = 0.000627885, No Iterations 3
smoothSolver:  Solving for k, Initial residual = 0.0104711, Final residual = 0.000753866, No Iterations 4
ExecutionTime = 0.791045 s  ClockTime = 1 s

Time = 48s

smoothSolver:  Solving for Ux, Initial residual = 0.00461371, Final residual = 0.000301367, No Iterations 6
smoothSolver:  Solving for Uy, Initial residual = 0.0186469, Final residual = 0.00130497, No Iterations 6
GAMG:  Solving for p, Initial residual = 0.0225931, Final residual = 0.00190851, No Iterations 3
time step continuity errors : sum local = 0.0995532, global = 0.0175003, cumulative = 1.18084
smoothSolver:  Solving for epsilon, Initial residual = 0.00709598, Final residual = 0.000599906, No Iterations 3
smoothSolver:  Solving for k, Initial residual = 0.0101543, Final residual = 0.000728996, No Iterations 4
ExecutionTime = 0.804558 s  ClockTime = 1 s

Time = 49s

smoothSolver:  Solving for Ux, Initial residual = 0.00449191, Final residual = 0.000294442, No Iterations 6
smoothSolver:  Solving for Uy, Initial residual = 0.0186207, Final residual = 0.00131084, No Iterations 6
GAMG:  Solving for p, Initial residual = 0.0228428, Final residual = 0.00182729, No Iterations 3
time step continuity errors : sum local = 0.0939156, global = 0.0165004, cumulative = 1.19734
smoothSolver:  Solving for epsilon, Initial residual = 0.00691536, Final residual = 0.000579085, No Iterations 3
smoothSolver:  Solving for k, Initial residual = 0.00984284, Final residual = 0.000704523, No Iterations 4
ExecutionTime = 0.818299 s  ClockTime = 1 s

Time = 50s

smoothSolver:  Solving for Ux, Initial residual = 0.00439323, Final residual = 0.000288746, No Iterations 6
smoothSolver:  Solving for Uy, Initial residual = 0.0185818, Final residual = 0.00131553, No Iterations 6
GAMG:  Solving for p, Initial residual = 0.0239663, Final residual = 0.00172057, No Iterations 3
time step continuity errors : sum local = 0.0893193, global = 0.0160839, cumulative = 1.21343
smoothSolver:  Solving for epsilon, Initial residual = 0.00673324, Final residual = 0.000552315, No Iterations 3
smoothSolver:  Solving for k, Initial residual = 0.0094942, Final residual = 0.000680471, No Iterations 4
ExecutionTime = 0.831582 s  ClockTime = 1 s

Time = 51s

smoothSolver:  Solving for Ux, Initial residual = 0.00433145, Final residual = 0.000285246, No Iterations 6
smoothSolver:  Solving for Uy, Initial residual = 0.0186514, Final residual = 0.00131656, No Iterations 6
GAMG:  Solving for p, Initial residual = 0.0218862, Final residual = 0.00173645, No Iterations 3
time step continuity errors : sum local = 0.0883837, global = 0.0162593, cumulative = 1.22969
smoothSolver:  Solving for epsilon, Initial residual = 0.00650086, Final residual = 0.000536371, No Iterations 3
smoothSolver:  Solving for k, Initial residual = 0.00914057, Final residual = 0.000653959, No Iterations 4
ExecutionTime = 0.844971 s  ClockTime = 1 s

Time = 52s

smoothSolver:  Solving for Ux, Initial residual = 0.00425641, Final residual = 0.000281278, No Iterations 6
smoothSolver:  Solving for Uy, Initial residual = 0.0186269, Final residual = 0.00132206, No Iterations 6
GAMG:  Solving for p, Initial residual = 0.0219724, Final residual = 0.0016525, No Iterations 3
time step continuity errors : sum local = 0.0833148, global = 0.0150251, cumulative = 1.24471
smoothSolver:  Solving for epsilon, Initial residual = 0.00633791, Final residual = 0.000512303, No Iterations 3
smoothSolver:  Solving for k, Initial residual = 0.00885459, Final residual = 0.000633885, No Iterations 4
ExecutionTime = 0.857942 s  ClockTime = 1 s

Time = 53s

smoothSolver:  Solving for Ux, Initial residual = 0.00420332, Final residual = 0.000277787, No Iterations 6
smoothSolver:  Solving for Uy, Initial residual = 0.0186156, Final residual = 0.001328, No Iterations 6
GAMG:  Solving for p, Initial residual = 0.0228017, Final residual = 0.00161674, No Iterations 3
time step continuity errors : sum local = 0.0817248, global = 0.0156108, cumulative = 1.26032
smoothSolver:  Solving for epsilon, Initial residual = 0.00620704, Final residual = 0.000498448, No Iterations 3
smoothSolver:  Solving for k, Initial residual = 0.00855061, Final residual = 0.000609036, No Iterations 4
ExecutionTime = 0.871269 s  ClockTime = 1 s

Time = 54s

smoothSolver:  Solving for Ux, Initial residual = 0.00416299, Final residual = 0.000275434, No Iterations 6
smoothSolver:  Solving for Uy, Initial residual = 0.018681, Final residual = 0.00133009, No Iterations 6
GAMG:  Solving for p, Initial residual = 0.0212714, Final residual = 0.00144062, No Iterations 3
time step continuity errors : sum local = 0.0720231, global = 0.0128417, cumulative = 1.27316
smoothSolver:  Solving for epsilon, Initial residual = 0.0060235, Final residual = 0.000474193, No Iterations 3
smoothSolver:  Solving for k, Initial residual = 0.00830497, Final residual = 0.000592238, No Iterations 4
ExecutionTime = 0.884954 s  ClockTime = 1 s

Time = 55s

smoothSolver:  Solving for Ux, Initial residual = 0.00411183, Final residual = 0.000272371, No Iterations 6
smoothSolver:  Solving for Uy, Initial residual = 0.01868, Final residual = 0.00133647, No Iterations 6
GAMG:  Solving for p, Initial residual = 0.0210584, Final residual = 0.00166787, No Iterations 3
time step continuity errors : sum local = 0.0831087, global = 0.0173791, cumulative = 1.29054
smoothSolver:  Solving for epsilon, Initial residual = 0.0058712, Final residual = 0.000458253, No Iterations 3
smoothSolver:  Solving for k, Initial residual = 0.00803004, Final residual = 0.00057213, No Iterations 4
ExecutionTime = 0.898675 s  ClockTime = 1 s

Time = 56s

smoothSolver:  Solving for Ux, Initial residual = 0.00407621, Final residual = 0.000270098, No Iterations 6
smoothSolver:  Solving for Uy, Initial residual = 0.0186673, Final residual = 0.00134067, No Iterations 6
GAMG:  Solving for p, Initial residual = 0.0208041, Final residual = 0.00172201, No Iterations 3
time step continuity errors : sum local = 0.0851504, global = 0.00270201, cumulative = 1.29324
smoothSolver:  Solving for epsilon, Initial residual = 0.00578447, Final residual = 0.000440341, No Iterations 3
smoothSolver:  Solving for k, Initial residual = 0.00780016, Final residual = 0.000550567, No Iterations 4
ExecutionTime = 0.913411 s  ClockTime = 1 s

Time = 57s

smoothSolver:  Solving for Ux, Initial residual = 0.00405346, Final residual = 0.000267439, No Iterations 6
smoothSolver:  Solving for Uy, Initial residual = 0.0187706, Final residual = 0.00134632, No Iterations 6
GAMG:  Solving for p, Initial residual = 0.0246689, Final residual = 0.001436, No Iterations 3
time step continuity errors : sum local = 0.0716993, global = 0.0172665, cumulative = 1.31051
smoothSolver:  Solving for epsilon, Initial residual = 0.00569565, Final residual = 0.000429888, No Iterations 3
smoothSolver:  Solving for k, Initial residual = 0.00757266, Final residual = 0.000540791, No Iterations 4
ExecutionTime = 0.92692 s  ClockTime = 1 s

Time = 58s

smoothSolver:  Solving for Ux, Initial residual = 0.00403106, Final residual = 0.000266653, No Iterations 6
smoothSolver:  Solving for Uy, Initial residual = 0.0187897, Final residual = 0.00134487, No Iterations 6
GAMG:  Solving for p, Initial residual = 0.0221264, Final residual = 0.00190114, No Iterations 3
time step continuity errors : sum local = 0.0929583, global = -0.00796985, cumulative = 1.30254
smoothSolver:  Solving for epsilon, Initial residual = 0.00551004, Final residual = 0.000418163, No Iterations 3
smoothSolver:  Solving for k, Initial residual = 0.00741217, Final residual = 0.000526198, No Iterations 4
ExecutionTime = 0.940439 s  ClockTime = 1 s

Time = 59s

smoothSolver:  Solving for Ux, Initial residual = 0.00399364, Final residual = 0.00026342, No Iterations 6
smoothSolver:  Solving for Uy, Initial residual = 0.018864, Final residual = 0.00135439, No Iterations 6
GAMG:  Solving for p, Initial residual = 0.0222035, Final residual = 0.00158038, No Iterations 3
time step continuity errors : sum local = 0.0761827, global = 0.0151979, cumulative = 1.31774
smoothSolver:  Solving for epsilon, Initial residual = 0.00540398, Final residual = 0.000407709, No Iterations 3
smoothSolver:  Solving for k, Initial residual = 0.00716889, Final residual = 0.000509712, No Iterations 4
ExecutionTime = 0.954264 s  ClockTime = 1 s

Time = 60s

smoothSolver:  Solving for Ux, Initial residual = 0.00395551, Final residual = 0.000262019, No Iterations 6
smoothSolver:  Solving for Uy, Initial residual = 0.018861, Final residual = 0.00135894, No Iterations 6
GAMG:  Solving for p, Initial residual = 0.0220292, Final residual = 0.00201812, No Iterations 3
time step continuity errors : sum local = 0.0975808, global = -0.00383863, cumulative = 1.3139
smoothSolver:  Solving for epsilon, Initial residual = 0.00536163, Final residual = 0.000402404, No Iterations 3
smoothSolver:  Solving for k, Initial residual = 0.00699418, Final residual = 0.000498926, No Iterations 4
ExecutionTime = 0.968476 s  ClockTime = 1 s

Time = 61s

smoothSolver:  Solving for Ux, Initial residual = 0.00392709, Final residual = 0.00025908, No Iterations 6
smoothSolver:  Solving for Uy, Initial residual = 0.0190301, Final residual = 0.00137008, No Iterations 6
GAMG:  Solving for p, Initial residual = 0.0216924, Final residual = 0.00148576, No Iterations 3
time step continuity errors : sum local = 0.0719345, global = 0.0146493, cumulative = 1.32855
smoothSolver:  Solving for epsilon, Initial residual = 0.0052598, Final residual = 0.000395366, No Iterations 3
smoothSolver:  Solving for k, Initial residual = 0.00676442, Final residual = 0.000481785, No Iterations 4
ExecutionTime = 0.982391 s  ClockTime = 1 s

Time = 62s

smoothSolver:  Solving for Ux, Initial residual = 0.00389978, Final residual = 0.000258464, No Iterations 6
smoothSolver:  Solving for Uy, Initial residual = 0.0189452, Final residual = 0.00137324, No Iterations 6
GAMG:  Solving for p, Initial residual = 0.0192116, Final residual = 0.00186871, No Iterations 3
time step continuity errors : sum local = 0.0894757, global = -0.00155755, cumulative = 1.32699
smoothSolver:  Solving for epsilon, Initial residual = 0.00514993, Final residual = 0.000387775, No Iterations 3
smoothSolver:  Solving for k, Initial residual = 0.00664361, Final residual = 0.000475373, No Iterations 4
ExecutionTime = 0.996852 s  ClockTime = 1 s

Time = 63s

smoothSolver:  Solving for Ux, Initial residual = 0.00387046, Final residual = 0.000255816, No Iterations 6
smoothSolver:  Solving for Uy, Initial residual = 0.0189601, Final residual = 0.0013835, No Iterations 6
GAMG:  Solving for p, Initial residual = 0.0191216, Final residual = 0.00144802, No Iterations 3
time step continuity errors : sum local = 0.0688389, global = 0.015143, cumulative = 1.34214
smoothSolver:  Solving for epsilon, Initial residual = 0.00504539, Final residual = 0.00038358, No Iterations 3
smoothSolver:  Solving for k, Initial residual = 0.00649329, Final residual = 0.000467938, No Iterations 4
ExecutionTime = 1.01052 s  ClockTime = 1 s

Time = 64s

smoothSolver:  Solving for Ux, Initial residual = 0.00384509, Final residual = 0.000254824, No Iterations 6
smoothSolver:  Solving for Uy, Initial residual = 0.0189988, Final residual = 0.00139165, No Iterations 6
GAMG:  Solving for p, Initial residual = 0.0191166, Final residual = 0.00183148, No Iterations 3
time step continuity errors : sum local = 0.0868712, global = -0.0108486, cumulative = 1.33129
smoothSolver:  Solving for epsilon, Initial residual = 0.00498232, Final residual = 0.00038054, No Iterations 3
smoothSolver:  Solving for k, Initial residual = 0.00633624, Final residual = 0.000457517, No Iterations 4
ExecutionTime = 1.02468 s  ClockTime = 1 s

Time = 65s

smoothSolver:  Solving for Ux, Initial residual = 0.00382812, Final residual = 0.000252778, No Iterations 6
smoothSolver:  Solving for Uy, Initial residual = 0.0191148, Final residual = 0.00140066, No Iterations 6
GAMG:  Solving for p, Initial residual = 0.0183694, Final residual = 0.00157711, No Iterations 3
time step continuity errors : sum local = 0.074223, global = 0.0138996, cumulative = 1.34519
smoothSolver:  Solving for epsilon, Initial residual = 0.00489714, Final residual = 0.000373806, No Iterations 3
smoothSolver:  Solving for k, Initial residual = 0.00622071, Final residual = 0.000449596, No Iterations 4
ExecutionTime = 1.03787 s  ClockTime = 1 s

Time = 66s

smoothSolver:  Solving for Ux, Initial residual = 0.00380625, Final residual = 0.000251998, No Iterations 6
smoothSolver:  Solving for Uy, Initial residual = 0.0191747, Final residual = 0.00140932, No Iterations 6
GAMG:  Solving for p, Initial residual = 0.0181394, Final residual = 0.00180686, No Iterations 3
time step continuity errors : sum local = 0.0852084, global = -0.0144188, cumulative = 1.33077
smoothSolver:  Solving for epsilon, Initial residual = 0.00484012, Final residual = 0.000371324, No Iterations 3
smoothSolver:  Solving for k, Initial residual = 0.00611083, Final residual = 0.000444128, No Iterations 4
ExecutionTime = 1.05114 s  ClockTime = 1 s

Time = 67s

smoothSolver:  Solving for Ux, Initial residual = 0.00378883, Final residual = 0.000249988, No Iterations 6
smoothSolver:  Solving for Uy, Initial residual = 0.0193038, Final residual = 0.00141928, No Iterations 6
GAMG:  Solving for p, Initial residual = 0.0183471, Final residual = 0.00172701, No Iterations 3
time step continuity errors : sum local = 0.0808529, global = 0.0132449, cumulative = 1.34401
smoothSolver:  Solving for epsilon, Initial residual = 0.00478593, Final residual = 0.00036953, No Iterations 3
smoothSolver:  Solving for k, Initial residual = 0.00602488, Final residual = 0.000440793, No Iterations 4
ExecutionTime = 1.06428 s  ClockTime = 1 s

Time = 68s

smoothSolver:  Solving for Ux, Initial residual = 0.00377242, Final residual = 0.000249422, No Iterations 6
smoothSolver:  Solving for Uy, Initial residual = 0.0194364, Final residual = 0.00142967, No Iterations 6
GAMG:  Solving for p, Initial residual = 0.0188059, Final residual = 0.0017184, No Iterations 3
time step continuity errors : sum local = 0.0801741, global = -0.0138691, cumulative = 1.33014
smoothSolver:  Solving for epsilon, Initial residual = 0.00473148, Final residual = 0.000370083, No Iterations 3
smoothSolver:  Solving for k, Initial residual = 0.00591421, Final residual = 0.000435171, No Iterations 4
ExecutionTime = 1.07802 s  ClockTime = 1 s

Time = 69s

smoothSolver:  Solving for Ux, Initial residual = 0.00375382, Final residual = 0.000247777, No Iterations 6
smoothSolver:  Solving for Uy, Initial residual = 0.0195199, Final residual = 0.00143991, No Iterations 6
GAMG:  Solving for p, Initial residual = 0.0176467, Final residual = 0.0017175, No Iterations 3
time step continuity errors : sum local = 0.0800414, global = 0.0127591, cumulative = 1.3429
smoothSolver:  Solving for epsilon, Initial residual = 0.00467597, Final residual = 0.000367141, No Iterations 3
smoothSolver:  Solving for k, Initial residual = 0.00585738, Final residual = 0.000432784, No Iterations 4
ExecutionTime = 1.09172 s  ClockTime = 1 s

Time = 70s

smoothSolver:  Solving for Ux, Initial residual = 0.00374282, Final residual = 0.000247471, No Iterations 6
smoothSolver:  Solving for Uy, Initial residual = 0.0196583, Final residual = 0.00145142, No Iterations 6
GAMG:  Solving for p, Initial residual = 0.0187009, Final residual = 0.00171001, No Iterations 3
time step continuity errors : sum local = 0.0794635, global = -0.0129302, cumulative = 1.32997
smoothSolver:  Solving for epsilon, Initial residual = 0.0046501, Final residual = 0.000367743, No Iterations 3
smoothSolver:  Solving for k, Initial residual = 0.00576152, Final residual = 0.000428842, No Iterations 4
ExecutionTime = 1.10555 s  ClockTime = 1 s

Time = 71s

smoothSolver:  Solving for Ux, Initial residual = 0.00373287, Final residual = 0.000246188, No Iterations 6
smoothSolver:  Solving for Uy, Initial residual = 0.0198277, Final residual = 0.00146143, No Iterations 6
GAMG:  Solving for p, Initial residual = 0.0184791, Final residual = 0.00169389, No Iterations 3
time step continuity errors : sum local = 0.0784825, global = 0.0122191, cumulative = 1.34219
smoothSolver:  Solving for epsilon, Initial residual = 0.00462064, Final residual = 0.000370161, No Iterations 3
smoothSolver:  Solving for k, Initial residual = 0.00569642, Final residual = 0.000426844, No Iterations 4
ExecutionTime = 1.11871 s  ClockTime = 1 s

Time = 72s

smoothSolver:  Solving for Ux, Initial residual = 0.00372461, Final residual = 0.000246156, No Iterations 6
smoothSolver:  Solving for Uy, Initial residual = 0.0199586, Final residual = 0.00147336, No Iterations 6
GAMG:  Solving for p, Initial residual = 0.0190386, Final residual = 0.00164883, No Iterations 3
time step continuity errors : sum local = 0.0764486, global = -0.0121687, cumulative = 1.33002
smoothSolver:  Solving for epsilon, Initial residual = 0.00459231, Final residual = 0.000372723, No Iterations 3
smoothSolver:  Solving for k, Initial residual = 0.00562371, Final residual = 0.000424789, No Iterations 4
ExecutionTime = 1.13223 s  ClockTime = 1 s

Time = 73s

smoothSolver:  Solving for Ux, Initial residual = 0.0037113, Final residual = 0.000245098, No Iterations 6
smoothSolver:  Solving for Uy, Initial residual = 0.0200581, Final residual = 0.00148388, No Iterations 6
GAMG:  Solving for p, Initial residual = 0.0182471, Final residual = 0.00167439, No Iterations 3
time step continuity errors : sum local = 0.0774207, global = 0.0119795, cumulative = 1.342
smoothSolver:  Solving for epsilon, Initial residual = 0.00456759, Final residual = 0.000373891, No Iterations 3
smoothSolver:  Solving for k, Initial residual = 0.00558942, Final residual = 0.000425745, No Iterations 4
ExecutionTime = 1.1455 s  ClockTime = 1 s

Time = 74s

smoothSolver:  Solving for Ux, Initial residual = 0.00371138, Final residual = 0.000245392, No Iterations 6
smoothSolver:  Solving for Uy, Initial residual = 0.0202286, Final residual = 0.0014956, No Iterations 6
GAMG:  Solving for p, Initial residual = 0.0187586, Final residual = 0.00159647, No Iterations 3
time step continuity errors : sum local = 0.0735611, global = -0.0110839, cumulative = 1.33092
smoothSolver:  Solving for epsilon, Initial residual = 0.00453105, Final residual = 0.000375139, No Iterations 3
smoothSolver:  Solving for k, Initial residual = 0.00553051, Final residual = 0.000423503, No Iterations 4
ExecutionTime = 1.15861 s  ClockTime = 2 s

Time = 75s

smoothSolver:  Solving for Ux, Initial residual = 0.00370466, Final residual = 0.000244537, No Iterations 6
smoothSolver:  Solving for Uy, Initial residual = 0.0203748, Final residual = 0.0015064, No Iterations 6
GAMG:  Solving for p, Initial residual = 0.0184307, Final residual = 0.00168654, No Iterations 3
time step continuity errors : sum local = 0.0777908, global = 0.0115944, cumulative = 1.34251
smoothSolver:  Solving for epsilon, Initial residual = 0.00451133, Final residual = 0.000378762, No Iterations 3
smoothSolver:  Solving for k, Initial residual = 0.0055233, Final residual = 0.000428019, No Iterations 4
ExecutionTime = 1.1722 s  ClockTime = 2 s

Time = 76s

smoothSolver:  Solving for Ux, Initial residual = 0.00370131, Final residual = 0.000244857, No Iterations 6
smoothSolver:  Solving for Uy, Initial residual = 0.0204719, Final residual = 0.00151851, No Iterations 6
GAMG:  Solving for p, Initial residual = 0.0182923, Final residual = 0.00158717, No Iterations 3
time step continuity errors : sum local = 0.0729664, global = -0.010199, cumulative = 1.33231
smoothSolver:  Solving for epsilon, Initial residual = 0.00449797, Final residual = 0.000381288, No Iterations 3
smoothSolver:  Solving for k, Initial residual = 0.00546142, Final residual = 0.000424663, No Iterations 4
ExecutionTime = 1.18524 s  ClockTime = 2 s

Time = 77s

smoothSolver:  Solving for Ux, Initial residual = 0.00369976, Final residual = 0.000244221, No Iterations 6
smoothSolver:  Solving for Uy, Initial residual = 0.0206758, Final residual = 0.00152966, No Iterations 6
GAMG:  Solving for p, Initial residual = 0.0184864, Final residual = 0.00170607, No Iterations 3
time step continuity errors : sum local = 0.0782715, global = 0.0113378, cumulative = 1.34365
smoothSolver:  Solving for epsilon, Initial residual = 0.004474, Final residual = 0.000384438, No Iterations 3
smoothSolver:  Solving for k, Initial residual = 0.00543082, Final residual = 0.000426183, No Iterations 4
ExecutionTime = 1.19874 s  ClockTime = 2 s

Time = 78s

smoothSolver:  Solving for Ux, Initial residual = 0.00369916, Final residual = 0.000244666, No Iterations 6
smoothSolver:  Solving for Uy, Initial residual = 0.0207674, Final residual = 0.0015413, No Iterations 6
GAMG:  Solving for p, Initial residual = 0.0179743, Final residual = 0.00149601, No Iterations 3
time step continuity errors : sum local = 0.0687807, global = -0.0101432, cumulative = 1.33351
smoothSolver:  Solving for epsilon, Initial residual = 0.00443949, Final residual = 0.0003846, No Iterations 3
smoothSolver:  Solving for k, Initial residual = 0.00535136, Final residual = 0.000423402, No Iterations 4
ExecutionTime = 1.21279 s  ClockTime = 2 s

Time = 79s

smoothSolver:  Solving for Ux, Initial residual = 0.00369736, Final residual = 0.000244142, No Iterations 6
smoothSolver:  Solving for Uy, Initial residual = 0.0209681, Final residual = 0.00155415, No Iterations 6
GAMG:  Solving for p, Initial residual = 0.018128, Final residual = 0.00180065, No Iterations 3
time step continuity errors : sum local = 0.0827887, global = 0.0117247, cumulative = 1.34523
smoothSolver:  Solving for epsilon, Initial residual = 0.00442759, Final residual = 0.000388231, No Iterations 3
smoothSolver:  Solving for k, Initial residual = 0.00537072, Final residual = 0.000429659, No Iterations 4
ExecutionTime = 1.22616 s  ClockTime = 2 s

Time = 80s

smoothSolver:  Solving for Ux, Initial residual = 0.00369798, Final residual = 0.000244621, No Iterations 6
smoothSolver:  Solving for Uy, Initial residual = 0.0210654, Final residual = 0.00156511, No Iterations 6
GAMG:  Solving for p, Initial residual = 0.0181363, Final residual = 0.00148994, No Iterations 3
time step continuity errors : sum local = 0.0683002, global = -0.00979043, cumulative = 1.33544
smoothSolver:  Solving for epsilon, Initial residual = 0.00440375, Final residual = 0.000389689, No Iterations 3
smoothSolver:  Solving for k, Initial residual = 0.00531011, Final residual = 0.000427784, No Iterations 4
ExecutionTime = 1.23931 s  ClockTime = 2 s

Time = 81s

smoothSolver:  Solving for Ux, Initial residual = 0.00369492, Final residual = 0.000243958, No Iterations 6
smoothSolver:  Solving for Uy, Initial residual = 0.0212862, Final residual = 0.00157918, No Iterations 6
GAMG:  Solving for p, Initial residual = 0.0180977, Final residual = 0.00179156, No Iterations 3
time step continuity errors : sum local = 0.0824008, global = 0.012043, cumulative = 1.34749
smoothSolver:  Solving for epsilon, Initial residual = 0.00437604, Final residual = 0.000391846, No Iterations 3
smoothSolver:  Solving for k, Initial residual = 0.00529818, Final residual = 0.000430246, No Iterations 4
ExecutionTime = 1.25258 s  ClockTime = 2 s

Time = 82s

smoothSolver:  Solving for Ux, Initial residual = 0.00369235, Final residual = 0.000244387, No Iterations 6
smoothSolver:  Solving for Uy, Initial residual = 0.0213792, Final residual = 0.00159083, No Iterations 6
GAMG:  Solving for p, Initial residual = 0.0179011, Final residual = 0.00157745, No Iterations 3
time step continuity errors : sum local = 0.072622, global = -0.00912868, cumulative = 1.33836
smoothSolver:  Solving for epsilon, Initial residual = 0.00436605, Final residual = 0.000395098, No Iterations 3
smoothSolver:  Solving for k, Initial residual = 0.00525252, Final residual = 0.000430069, No Iterations 4
ExecutionTime = 1.26625 s  ClockTime = 2 s

Time = 83s

smoothSolver:  Solving for Ux, Initial residual = 0.0036912, Final residual = 0.000243764, No Iterations 6
smoothSolver:  Solving for Uy, Initial residual = 0.0216329, Final residual = 0.00160576, No Iterations 6
GAMG:  Solving for p, Initial residual = 0.0181068, Final residual = 0.0017397, No Iterations 3
time step continuity errors : sum local = 0.079753, global = 0.0120527, cumulative = 1.35041
smoothSolver:  Solving for epsilon, Initial residual = 0.00433188, Final residual = 0.000395604, No Iterations 3
smoothSolver:  Solving for k, Initial residual = 0.00524969, Final residual = 0.000433752, No Iterations 4
ExecutionTime = 1.28014 s  ClockTime = 2 s

Time = 84s

smoothSolver:  Solving for Ux, Initial residual = 0.00368643, Final residual = 0.000243947, No Iterations 6
smoothSolver:  Solving for Uy, Initial residual = 0.0217482, Final residual = 0.00161882, No Iterations 6
GAMG:  Solving for p, Initial residual = 0.0179039, Final residual = 0.00160745, No Iterations 3
time step continuity errors : sum local = 0.074008, global = -0.0085515, cumulative = 1.34186
smoothSolver:  Solving for epsilon, Initial residual = 0.00432924, Final residual = 0.000398022, No Iterations 3
smoothSolver:  Solving for k, Initial residual = 0.00522011, Final residual = 0.000434215, No Iterations 4
ExecutionTime = 1.2938 s  ClockTime = 2 s

Time = 85s

smoothSolver:  Solving for Ux, Initial residual = 0.00368469, Final residual = 0.00024331, No Iterations 6
smoothSolver:  Solving for Uy, Initial residual = 0.022005, Final residual = 0.00163504, No Iterations 6
GAMG:  Solving for p, Initial residual = 0.0180157, Final residual = 0.00175197, No Iterations 3
time step continuity errors : sum local = 0.0808011, global = 0.0119046, cumulative = 1.35376
smoothSolver:  Solving for epsilon, Initial residual = 0.00430214, Final residual = 0.000399974, No Iterations 3
smoothSolver:  Solving for k, Initial residual = 0.00520277, Final residual = 0.000436747, No Iterations 4
ExecutionTime = 1.30716 s  ClockTime = 2 s

Time = 86s

smoothSolver:  Solving for Ux, Initial residual = 0.00367916, Final residual = 0.000243471, No Iterations 6
smoothSolver:  Solving for Uy, Initial residual = 0.0221399, Final residual = 0.00164874, No Iterations 6
GAMG:  Solving for p, Initial residual = 0.0180421, Final residual = 0.00155513, No Iterations 3
time step continuity errors : sum local = 0.0711701, global = -0.00912673, cumulative = 1.34464
smoothSolver:  Solving for epsilon, Initial residual = 0.0042868, Final residual = 0.000400591, No Iterations 3
smoothSolver:  Solving for k, Initial residual = 0.00517719, Final residual = 0.000437636, No Iterations 4
ExecutionTime = 1.32063 s  ClockTime = 2 s

Time = 87s

smoothSolver:  Solving for Ux, Initial residual = 0.00367476, Final residual = 0.000242663, No Iterations 6
smoothSolver:  Solving for Uy, Initial residual = 0.0224138, Final residual = 0.00166675, No Iterations 6
GAMG:  Solving for p, Initial residual = 0.017696, Final residual = 0.00134793, No Iterations 4
time step continuity errors : sum local = 0.0620736, global = -0.011915, cumulative = 1.33272
smoothSolver:  Solving for epsilon, Initial residual = 0.00425879, Final residual = 0.000402956, No Iterations 3
smoothSolver:  Solving for k, Initial residual = 0.00516397, Final residual = 0.000440137, No Iterations 4
ExecutionTime = 1.33547 s  ClockTime = 2 s

Time = 88s

smoothSolver:  Solving for Ux, Initial residual = 0.00365881, Final residual = 0.000242279, No Iterations 6
smoothSolver:  Solving for Uy, Initial residual = 0.0225696, Final residual = 0.00168247, No Iterations 6
GAMG:  Solving for p, Initial residual = 0.0170591, Final residual = 0.00134731, No Iterations 4
time step continuity errors : sum local = 0.0620936, global = -0.0125789, cumulative = 1.32014
smoothSolver:  Solving for epsilon, Initial residual = 0.00423579, Final residual = 0.000402053, No Iterations 3
smoothSolver:  Solving for k, Initial residual = 0.00514602, Final residual = 0.00044164, No Iterations 4
ExecutionTime = 1.34908 s  ClockTime = 2 s

Time = 89s

smoothSolver:  Solving for Ux, Initial residual = 0.00366004, Final residual = 0.000242221, No Iterations 6
smoothSolver:  Solving for Uy, Initial residual = 0.0227917, Final residual = 0.00169895, No Iterations 6
GAMG:  Solving for p, Initial residual = 0.0165546, Final residual = 0.00140246, No Iterations 4
time step continuity errors : sum local = 0.0643339, global = -0.0133559, cumulative = 1.30679
smoothSolver:  Solving for epsilon, Initial residual = 0.00420784, Final residual = 0.000403424, No Iterations 3
smoothSolver:  Solving for k, Initial residual = 0.00513147, Final residual = 0.000444285, No Iterations 4
ExecutionTime = 1.36564 s  ClockTime = 2 s

Time = 90s

smoothSolver:  Solving for Ux, Initial residual = 0.00364892, Final residual = 0.000241862, No Iterations 6
smoothSolver:  Solving for Uy, Initial residual = 0.0229588, Final residual = 0.00171606, No Iterations 6
GAMG:  Solving for p, Initial residual = 0.0161963, Final residual = 0.00146087, No Iterations 4
time step continuity errors : sum local = 0.0674883, global = -0.0138608, cumulative = 1.29293
smoothSolver:  Solving for epsilon, Initial residual = 0.00419125, Final residual = 0.000403894, No Iterations 3
smoothSolver:  Solving for k, Initial residual = 0.00511762, Final residual = 0.000446016, No Iterations 4
ExecutionTime = 1.38196 s  ClockTime = 2 s

Time = 91s

smoothSolver:  Solving for Ux, Initial residual = 0.00363937, Final residual = 0.000241482, No Iterations 6
smoothSolver:  Solving for Uy, Initial residual = 0.0231456, Final residual = 0.00173263, No Iterations 6
GAMG:  Solving for p, Initial residual = 0.015842, Final residual = 0.001523, No Iterations 4
time step continuity errors : sum local = 0.0703847, global = -0.014362, cumulative = 1.27856
smoothSolver:  Solving for epsilon, Initial residual = 0.00415879, Final residual = 0.00040312, No Iterations 3
smoothSolver:  Solving for k, Initial residual = 0.00509992, Final residual = 0.000447627, No Iterations 4
ExecutionTime = 1.39535 s  ClockTime = 2 s

Time = 92s

smoothSolver:  Solving for Ux, Initial residual = 0.00362956, Final residual = 0.000240961, No Iterations 6
smoothSolver:  Solving for Uy, Initial residual = 0.0233648, Final residual = 0.00174934, No Iterations 6
GAMG:  Solving for p, Initial residual = 0.0155584, Final residual = 0.00125943, No Iterations 5
time step continuity errors : sum local = 0.057852, global = 0.0131701, cumulative = 1.29173
smoothSolver:  Solving for epsilon, Initial residual = 0.00414316, Final residual = 0.000403398, No Iterations 3
smoothSolver:  Solving for k, Initial residual = 0.00509721, Final residual = 0.000450832, No Iterations 4
ExecutionTime = 1.40943 s  ClockTime = 2 s

Time = 93s

smoothSolver:  Solving for Ux, Initial residual = 0.00362258, Final residual = 0.000240096, No Iterations 6
smoothSolver:  Solving for Uy, Initial residual = 0.0236201, Final residual = 0.00176833, No Iterations 6
GAMG:  Solving for p, Initial residual = 0.0152362, Final residual = 0.00144455, No Iterations 3
time step continuity errors : sum local = 0.0665138, global = 0.0105529, cumulative = 1.30229
smoothSolver:  Solving for epsilon, Initial residual = 0.0041208, Final residual = 0.000403006, No Iterations 3
smoothSolver:  Solving for k, Initial residual = 0.00509699, Final residual = 0.000453078, No Iterations 4
ExecutionTime = 1.42283 s  ClockTime = 2 s

Time = 94s

smoothSolver:  Solving for Ux, Initial residual = 0.0036152, Final residual = 0.00024006, No Iterations 6
smoothSolver:  Solving for Uy, Initial residual = 0.0238196, Final residual = 0.00178717, No Iterations 6
GAMG:  Solving for p, Initial residual = 0.0151463, Final residual = 0.00117075, No Iterations 4
time step continuity errors : sum local = 0.053849, global = -0.0112878, cumulative = 1.291
smoothSolver:  Solving for epsilon, Initial residual = 0.0041052, Final residual = 0.000402207, No Iterations 3
smoothSolver:  Solving for k, Initial residual = 0.00509147, Final residual = 0.000454932, No Iterations 4
ExecutionTime = 1.43621 s  ClockTime = 2 s

Time = 95s

smoothSolver:  Solving for Ux, Initial residual = 0.00359493, Final residual = 0.000238612, No Iterations 6
smoothSolver:  Solving for Uy, Initial residual = 0.0240912, Final residual = 0.00180527, No Iterations 6
GAMG:  Solving for p, Initial residual = 0.0146698, Final residual = 0.00113659, No Iterations 5
time step continuity errors : sum local = 0.0520321, global = 0.0101804, cumulative = 1.30118
smoothSolver:  Solving for epsilon, Initial residual = 0.00408127, Final residual = 0.000400926, No Iterations 3
smoothSolver:  Solving for k, Initial residual = 0.00507296, Final residual = 0.000455714, No Iterations 4
ExecutionTime = 1.4503 s  ClockTime = 2 s

Time = 96s

smoothSolver:  Solving for Ux, Initial residual = 0.00358874, Final residual = 0.000238553, No Iterations 6
smoothSolver:  Solving for Uy, Initial residual = 0.0243033, Final residual = 0.00182359, No Iterations 6
GAMG:  Solving for p, Initial residual = 0.0147913, Final residual = 0.00121942, No Iterations 4
time step continuity errors : sum local = 0.0560289, global = -0.013236, cumulative = 1.28794
smoothSolver:  Solving for epsilon, Initial residual = 0.00406965, Final residual = 0.0003999, No Iterations 3
smoothSolver:  Solving for k, Initial residual = 0.00508331, Final residual = 0.000458088, No Iterations 4
ExecutionTime = 1.46376 s  ClockTime = 2 s

Time = 97s

smoothSolver:  Solving for Ux, Initial residual = 0.00357719, Final residual = 0.000237764, No Iterations 6
smoothSolver:  Solving for Uy, Initial residual = 0.0245094, Final residual = 0.00184059, No Iterations 6
GAMG:  Solving for p, Initial residual = 0.014625, Final residual = 0.00124124, No Iterations 5
time step continuity errors : sum local = 0.0570245, global = 0.0116636, cumulative = 1.29961
smoothSolver:  Solving for epsilon, Initial residual = 0.00404347, Final residual = 0.000397824, No Iterations 3
smoothSolver:  Solving for k, Initial residual = 0.00505131, Final residual = 0.000456999, No Iterations 4
ExecutionTime = 1.47812 s  ClockTime = 2 s

Time = 98s

smoothSolver:  Solving for Ux, Initial residual = 0.00356661, Final residual = 0.000237231, No Iterations 6
smoothSolver:  Solving for Uy, Initial residual = 0.0247646, Final residual = 0.00185769, No Iterations 6
GAMG:  Solving for p, Initial residual = 0.0146377, Final residual = 0.00132445, No Iterations 4
time step continuity errors : sum local = 0.0603435, global = -0.0141631, cumulative = 1.28544
smoothSolver:  Solving for epsilon, Initial residual = 0.00402604, Final residual = 0.000395583, No Iterations 3
smoothSolver:  Solving for k, Initial residual = 0.00506753, Final residual = 0.000459834, No Iterations 4
ExecutionTime = 1.49213 s  ClockTime = 2 s

Time = 99s

smoothSolver:  Solving for Ux, Initial residual = 0.00354968, Final residual = 0.00023614, No Iterations 6
smoothSolver:  Solving for Uy, Initial residual = 0.0249876, Final residual = 0.00187685, No Iterations 6
GAMG:  Solving for p, Initial residual = 0.0146297, Final residual = 0.00131054, No Iterations 5
time step continuity errors : sum local = 0.0600808, global = 0.0125293, cumulative = 1.29797
smoothSolver:  Solving for epsilon, Initial residual = 0.00399837, Final residual = 0.000392947, No Iterations 3
smoothSolver:  Solving for k, Initial residual = 0.00505291, Final residual = 0.000459516, No Iterations 4
ExecutionTime = 1.5065 s  ClockTime = 2 s

Time = 100s

smoothSolver:  Solving for Ux, Initial residual = 0.0035364, Final residual = 0.000235571, No Iterations 6
smoothSolver:  Solving for Uy, Initial residual = 0.0252115, Final residual = 0.00189353, No Iterations 6
GAMG:  Solving for p, Initial residual = 0.0145586, Final residual = 0.00135373, No Iterations 4
time step continuity errors : sum local = 0.0617016, global = -0.0140981, cumulative = 1.28387
smoothSolver:  Solving for epsilon, Initial residual = 0.00399059, Final residual = 0.000391542, No Iterations 3
smoothSolver:  Solving for k, Initial residual = 0.00507943, Final residual = 0.000462499, No Iterations 4
ExecutionTime = 1.5441 s  ClockTime = 2 s

streamlines streamlines write:
    Seeded 10 particles
    Sampled 12075 locations
Time = 101s

smoothSolver:  Solving for Ux, Initial residual = 0.0035184, Final residual = 0.000234418, No Iterations 6
smoothSolver:  Solving for Uy, Initial residual = 0.0254411, Final residual = 0.00191067, No Iterations 6
GAMG:  Solving for p, Initial residual = 0.0144607, Final residual = 0.00134278, No Iterations 5
time step continuity errors : sum local = 0.0609142, global = 0.0124288, cumulative = 1.2963
smoothSolver:  Solving for epsilon, Initial residual = 0.00397686, Final residual = 0.000389249, No Iterations 3
smoothSolver:  Solving for k, Initial residual = 0.00508544, Final residual = 0.000463868, No Iterations 4
ExecutionTime = 1.61143 s  ClockTime = 2 s

Time = 102s

smoothSolver:  Solving for Ux, Initial residual = 0.00350421, Final residual = 0.000233812, No Iterations 6
smoothSolver:  Solving for Uy, Initial residual = 0.025658, Final residual = 0.00192887, No Iterations 6
GAMG:  Solving for p, Initial residual = 0.0145186, Final residual = 0.00137393, No Iterations 4
time step continuity errors : sum local = 0.0623553, global = -0.0137779, cumulative = 1.28253
smoothSolver:  Solving for epsilon, Initial residual = 0.00395595, Final residual = 0.000386268, No Iterations 3
smoothSolver:  Solving for k, Initial residual = 0.00509654, Final residual = 0.000465037, No Iterations 4
ExecutionTime = 1.62635 s  ClockTime = 2 s

Time = 103s

smoothSolver:  Solving for Ux, Initial residual = 0.00348484, Final residual = 0.000232656, No Iterations 6
smoothSolver:  Solving for Uy, Initial residual = 0.0258591, Final residual = 0.0019453, No Iterations 6
GAMG:  Solving for p, Initial residual = 0.014405, Final residual = 0.00134238, No Iterations 5
time step continuity errors : sum local = 0.0608191, global = 0.0119619, cumulative = 1.29449
smoothSolver:  Solving for epsilon, Initial residual = 0.00393196, Final residual = 0.000383079, No Iterations 3
smoothSolver:  Solving for k, Initial residual = 0.00509598, Final residual = 0.000465517, No Iterations 4
ExecutionTime = 1.64186 s  ClockTime = 2 s

Time = 104s

smoothSolver:  Solving for Ux, Initial residual = 0.00346953, Final residual = 0.000232, No Iterations 6
smoothSolver:  Solving for Uy, Initial residual = 0.0260924, Final residual = 0.0019617, No Iterations 6
GAMG:  Solving for p, Initial residual = 0.014384, Final residual = 0.00139012, No Iterations 4
time step continuity errors : sum local = 0.0624751, global = -0.0134474, cumulative = 1.28104
smoothSolver:  Solving for epsilon, Initial residual = 0.00392256, Final residual = 0.000381299, No Iterations 3
smoothSolver:  Solving for k, Initial residual = 0.00511141, Final residual = 0.000466809, No Iterations 4
ExecutionTime = 1.65596 s  ClockTime = 2 s

Time = 105s

smoothSolver:  Solving for Ux, Initial residual = 0.00344962, Final residual = 0.000230858, No Iterations 6
smoothSolver:  Solving for Uy, Initial residual = 0.0262911, Final residual = 0.00197871, No Iterations 6
GAMG:  Solving for p, Initial residual = 0.0145529, Final residual = 0.00133322, No Iterations 5
time step continuity errors : sum local = 0.0601903, global = 0.0114793, cumulative = 1.29252
smoothSolver:  Solving for epsilon, Initial residual = 0.00390786, Final residual = 0.000378091, No Iterations 3
smoothSolver:  Solving for k, Initial residual = 0.00511931, Final residual = 0.000467454, No Iterations 4
ExecutionTime = 1.67076 s  ClockTime = 2 s

Time = 106s

smoothSolver:  Solving for Ux, Initial residual = 0.00343408, Final residual = 0.000230245, No Iterations 6
smoothSolver:  Solving for Uy, Initial residual = 0.0264953, Final residual = 0.0019945, No Iterations 6
GAMG:  Solving for p, Initial residual = 0.0143293, Final residual = 0.00135225, No Iterations 4
time step continuity errors : sum local = 0.0606243, global = -0.0127693, cumulative = 1.27975
smoothSolver:  Solving for epsilon, Initial residual = 0.00389027, Final residual = 0.000374723, No Iterations 3
smoothSolver:  Solving for k, Initial residual = 0.00513578, Final residual = 0.000468563, No Iterations 4
ExecutionTime = 1.68553 s  ClockTime = 2 s

Time = 107s

smoothSolver:  Solving for Ux, Initial residual = 0.00341217, Final residual = 0.00022901, No Iterations 6
smoothSolver:  Solving for Uy, Initial residual = 0.0267068, Final residual = 0.00201009, No Iterations 6
GAMG:  Solving for p, Initial residual = 0.0143313, Final residual = 0.00130594, No Iterations 5
time step continuity errors : sum local = 0.058259, global = 0.0106284, cumulative = 1.29038
smoothSolver:  Solving for epsilon, Initial residual = 0.00386951, Final residual = 0.000370993, No Iterations 3
smoothSolver:  Solving for k, Initial residual = 0.00515276, Final residual = 0.000469385, No Iterations 4
ExecutionTime = 1.70068 s  ClockTime = 2 s

Time = 108s

smoothSolver:  Solving for Ux, Initial residual = 0.0033981, Final residual = 0.000228533, No Iterations 6
smoothSolver:  Solving for Uy, Initial residual = 0.0269127, Final residual = 0.00202807, No Iterations 6
GAMG:  Solving for p, Initial residual = 0.0144967, Final residual = 0.00129251, No Iterations 4
time step continuity errors : sum local = 0.0576445, global = -0.0118043, cumulative = 1.27857
smoothSolver:  Solving for epsilon, Initial residual = 0.00386072, Final residual = 0.000369269, No Iterations 3
smoothSolver:  Solving for k, Initial residual = 0.00516623, Final residual = 0.000469679, No Iterations 4
ExecutionTime = 1.71528 s  ClockTime = 2 s

Time = 109s

smoothSolver:  Solving for Ux, Initial residual = 0.0033746, Final residual = 0.000227317, No Iterations 6
smoothSolver:  Solving for Uy, Initial residual = 0.0270902, Final residual = 0.00204256, No Iterations 6
GAMG:  Solving for p, Initial residual = 0.0143279, Final residual = 0.0012352, No Iterations 5
time step continuity errors : sum local = 0.0548896, global = 0.00946374, cumulative = 1.28804
smoothSolver:  Solving for epsilon, Initial residual = 0.00384447, Final residual = 0.000366425, No Iterations 3
smoothSolver:  Solving for k, Initial residual = 0.00517715, Final residual = 0.000469751, No Iterations 4
ExecutionTime = 1.72991 s  ClockTime = 2 s

Time = 110s

smoothSolver:  Solving for Ux, Initial residual = 0.00336163, Final residual = 0.00022696, No Iterations 6
smoothSolver:  Solving for Uy, Initial residual = 0.0273089, Final residual = 0.00206025, No Iterations 6
GAMG:  Solving for p, Initial residual = 0.0144006, Final residual = 0.00118586, No Iterations 4
time step continuity errors : sum local = 0.0523002, global = -0.0108138, cumulative = 1.27722
smoothSolver:  Solving for epsilon, Initial residual = 0.00383574, Final residual = 0.000364199, No Iterations 3
smoothSolver:  Solving for k, Initial residual = 0.00518502, Final residual = 0.000469334, No Iterations 4
ExecutionTime = 1.743 s  ClockTime = 2 s

Time = 111s

smoothSolver:  Solving for Ux, Initial residual = 0.00333776, Final residual = 0.000225885, No Iterations 6
smoothSolver:  Solving for Uy, Initial residual = 0.0274972, Final residual = 0.00207684, No Iterations 6
GAMG:  Solving for p, Initial residual = 0.0145385, Final residual = 0.00114176, No Iterations 5
time step continuity errors : sum local = 0.0504059, global = 0.00752425, cumulative = 1.28475
smoothSolver:  Solving for epsilon, Initial residual = 0.00382357, Final residual = 0.000363578, No Iterations 3
smoothSolver:  Solving for k, Initial residual = 0.00520174, Final residual = 0.000469589, No Iterations 4
ExecutionTime = 1.75724 s  ClockTime = 2 s

Time = 112s

smoothSolver:  Solving for Ux, Initial residual = 0.00332639, Final residual = 0.000225787, No Iterations 6
smoothSolver:  Solving for Uy, Initial residual = 0.0276753, Final residual = 0.00209351, No Iterations 6
GAMG:  Solving for p, Initial residual = 0.0144574, Final residual = 0.0011836, No Iterations 4
time step continuity errors : sum local = 0.0519803, global = -0.0102232, cumulative = 1.27453
smoothSolver:  Solving for epsilon, Initial residual = 0.00381629, Final residual = 0.000362193, No Iterations 3
smoothSolver:  Solving for k, Initial residual = 0.0052114, Final residual = 0.000468871, No Iterations 4
ExecutionTime = 1.77081 s  ClockTime = 2 s

Time = 113s

smoothSolver:  Solving for Ux, Initial residual = 0.00330499, Final residual = 0.00022489, No Iterations 6
smoothSolver:  Solving for Uy, Initial residual = 0.0278666, Final residual = 0.00210841, No Iterations 6
GAMG:  Solving for p, Initial residual = 0.0145275, Final residual = 0.00110364, No Iterations 5
time step continuity errors : sum local = 0.0482072, global = 0.00671578, cumulative = 1.28124
smoothSolver:  Solving for epsilon, Initial residual = 0.00381637, Final residual = 0.000358457, No Iterations 3
smoothSolver:  Solving for k, Initial residual = 0.00523465, Final residual = 0.000469592, No Iterations 4
ExecutionTime = 1.78471 s  ClockTime = 2 s

Time = 114s

smoothSolver:  Solving for Ux, Initial residual = 0.00329691, Final residual = 0.000224923, No Iterations 6
smoothSolver:  Solving for Uy, Initial residual = 0.0280518, Final residual = 0.00212599, No Iterations 6
GAMG:  Solving for p, Initial residual = 0.0149196, Final residual = 0.00110116, No Iterations 4
time step continuity errors : sum local = 0.0482251, global = -0.0090282, cumulative = 1.27221
smoothSolver:  Solving for epsilon, Initial residual = 0.00380629, Final residual = 0.000356082, No Iterations 3
smoothSolver:  Solving for k, Initial residual = 0.00524647, Final residual = 0.000468325, No Iterations 4
ExecutionTime = 1.79827 s  ClockTime = 2 s

Time = 115s

smoothSolver:  Solving for Ux, Initial residual = 0.00327844, Final residual = 0.000224317, No Iterations 6
smoothSolver:  Solving for Uy, Initial residual = 0.0282204, Final residual = 0.00213939, No Iterations 6
GAMG:  Solving for p, Initial residual = 0.0146996, Final residual = 0.00103449, No Iterations 5
time step continuity errors : sum local = 0.0451036, global = 0.00593217, cumulative = 1.27814
[...]
GAMG:  Solving for p, Initial residual = 0.00239026, Final residual = 0.000182534, No Iterations 5
time step continuity errors : sum local = 0.00774975, global = 0.000373612, cumulative = 1.26926
smoothSolver:  Solving for epsilon, Initial residual = 0.000328559, Final residual = 2.38754e-05, No Iterations 3
smoothSolver:  Solving for k, Initial residual = 0.000559057, Final residual = 3.46513e-05, No Iterations 4
ExecutionTime = 3.92176 s  ClockTime = 4 s

Time = 260s

smoothSolver:  Solving for Ux, Initial residual = 0.000305348, Final residual = 2.10027e-05, No Iterations 6
smoothSolver:  Solving for Uy, Initial residual = 0.00252338, Final residual = 0.000176109, No Iterations 6
GAMG:  Solving for p, Initial residual = 0.00228228, Final residual = 0.000164866, No Iterations 5
time step continuity errors : sum local = 0.00700048, global = 0.000327601, cumulative = 1.26959
smoothSolver:  Solving for epsilon, Initial residual = 0.000318108, Final residual = 2.3096e-05, No Iterations 3
smoothSolver:  Solving for k, Initial residual = 0.000543983, Final residual = 3.36623e-05, No Iterations 4
ExecutionTime = 3.93595 s  ClockTime = 4 s

Time = 261s

smoothSolver:  Solving for Ux, Initial residual = 0.000298727, Final residual = 2.05154e-05, No Iterations 6
smoothSolver:  Solving for Uy, Initial residual = 0.0024674, Final residual = 0.000168832, No Iterations 6
GAMG:  Solving for p, Initial residual = 0.00343849, Final residual = 0.000331359, No Iterations 3
time step continuity errors : sum local = 0.0140972, global = 0.000850903, cumulative = 1.27044
smoothSolver:  Solving for epsilon, Initial residual = 0.000307901, Final residual = 2.23096e-05, No Iterations 3
smoothSolver:  Solving for k, Initial residual = 0.000528553, Final residual = 3.24998e-05, No Iterations 4
ExecutionTime = 3.94929 s  ClockTime = 4 s

Time = 262s

smoothSolver:  Solving for Ux, Initial residual = 0.000289911, Final residual = 2.00383e-05, No Iterations 6
smoothSolver:  Solving for Uy, Initial residual = 0.002362, Final residual = 0.000161218, No Iterations 6
GAMG:  Solving for p, Initial residual = 0.00246076, Final residual = 0.000240534, No Iterations 4
time step continuity errors : sum local = 0.0102309, global = -0.000719561, cumulative = 1.26972
smoothSolver:  Solving for epsilon, Initial residual = 0.000298087, Final residual = 2.14906e-05, No Iterations 3
smoothSolver:  Solving for k, Initial residual = 0.00051212, Final residual = 3.14468e-05, No Iterations 4
ExecutionTime = 3.96391 s  ClockTime = 4 s

Time = 263s

smoothSolver:  Solving for Ux, Initial residual = 0.000281492, Final residual = 1.9441e-05, No Iterations 6
smoothSolver:  Solving for Uy, Initial residual = 0.00225929, Final residual = 0.000153663, No Iterations 6
GAMG:  Solving for p, Initial residual = 0.00227501, Final residual = 0.000166466, No Iterations 5
time step continuity errors : sum local = 0.00707287, global = 0.000451751, cumulative = 1.27017
smoothSolver:  Solving for epsilon, Initial residual = 0.000288251, Final residual = 2.06717e-05, No Iterations 3
smoothSolver:  Solving for k, Initial residual = 0.000497011, Final residual = 3.03793e-05, No Iterations 4
ExecutionTime = 3.97798 s  ClockTime = 4 s

Time = 264s

smoothSolver:  Solving for Ux, Initial residual = 0.000274425, Final residual = 1.89333e-05, No Iterations 6
smoothSolver:  Solving for Uy, Initial residual = 0.00217614, Final residual = 0.000146276, No Iterations 6
GAMG:  Solving for p, Initial residual = 0.00216748, Final residual = 0.000202375, No Iterations 4
time step continuity errors : sum local = 0.00859554, global = -0.000642224, cumulative = 1.26953
smoothSolver:  Solving for epsilon, Initial residual = 0.000281693, Final residual = 1.9944e-05, No Iterations 3
smoothSolver:  Solving for k, Initial residual = 0.000481896, Final residual = 2.94597e-05, No Iterations 4
ExecutionTime = 3.99138 s  ClockTime = 4 s

Time = 265s

smoothSolver:  Solving for Ux, Initial residual = 0.000268894, Final residual = 1.84867e-05, No Iterations 6
smoothSolver:  Solving for Uy, Initial residual = 0.0020773, Final residual = 0.000139362, No Iterations 6
GAMG:  Solving for p, Initial residual = 0.00304553, Final residual = 0.00022101, No Iterations 4
time step continuity errors : sum local = 0.00942018, global = -0.000739112, cumulative = 1.26879
smoothSolver:  Solving for epsilon, Initial residual = 0.000271549, Final residual = 1.90473e-05, No Iterations 3
smoothSolver:  Solving for k, Initial residual = 0.000464499, Final residual = 2.82563e-05, No Iterations 4
ExecutionTime = 4.0056 s  ClockTime = 4 s

Time = 266s

smoothSolver:  Solving for Ux, Initial residual = 0.000261703, Final residual = 1.79439e-05, No Iterations 6
smoothSolver:  Solving for Uy, Initial residual = 0.00199002, Final residual = 0.000132644, No Iterations 6
GAMG:  Solving for p, Initial residual = 0.00204838, Final residual = 0.000167399, No Iterations 5
time step continuity errors : sum local = 0.00711943, global = 0.000773914, cumulative = 1.26956
smoothSolver:  Solving for epsilon, Initial residual = 0.000258122, Final residual = 1.81667e-05, No Iterations 3
smoothSolver:  Solving for k, Initial residual = 0.000448149, Final residual = 2.7193e-05, No Iterations 4
ExecutionTime = 4.02085 s  ClockTime = 4 s

Time = 267s

smoothSolver:  Solving for Ux, Initial residual = 0.000253602, Final residual = 1.72549e-05, No Iterations 6
smoothSolver:  Solving for Uy, Initial residual = 0.00192911, Final residual = 0.00012607, No Iterations 6
GAMG:  Solving for p, Initial residual = 0.00217801, Final residual = 0.000176276, No Iterations 4
time step continuity errors : sum local = 0.00748952, global = -0.000574146, cumulative = 1.26899
smoothSolver:  Solving for epsilon, Initial residual = 0.000249063, Final residual = 1.74013e-05, No Iterations 3
smoothSolver:  Solving for k, Initial residual = 0.000431956, Final residual = 2.62041e-05, No Iterations 4
ExecutionTime = 4.03425 s  ClockTime = 4 s

Time = 268s

smoothSolver:  Solving for Ux, Initial residual = 0.000246621, Final residual = 1.67032e-05, No Iterations 6
smoothSolver:  Solving for Uy, Initial residual = 0.00183933, Final residual = 0.000119626, No Iterations 6
GAMG:  Solving for p, Initial residual = 0.00241175, Final residual = 0.000185074, No Iterations 4
time step continuity errors : sum local = 0.00787396, global = -0.000638051, cumulative = 1.26835
smoothSolver:  Solving for epsilon, Initial residual = 0.000239782, Final residual = 1.66208e-05, No Iterations 3
smoothSolver:  Solving for k, Initial residual = 0.000415423, Final residual = 2.51615e-05, No Iterations 4
ExecutionTime = 4.04791 s  ClockTime = 4 s

Time = 269s

smoothSolver:  Solving for Ux, Initial residual = 0.000239189, Final residual = 1.61118e-05, No Iterations 6
smoothSolver:  Solving for Uy, Initial residual = 0.00174927, Final residual = 0.000114275, No Iterations 6
GAMG:  Solving for p, Initial residual = 0.00193729, Final residual = 0.000180053, No Iterations 4
time step continuity errors : sum local = 0.00764841, global = -0.000584989, cumulative = 1.26777
smoothSolver:  Solving for epsilon, Initial residual = 0.000231858, Final residual = 1.58515e-05, No Iterations 3
smoothSolver:  Solving for k, Initial residual = 0.000400402, Final residual = 2.42275e-05, No Iterations 4
ExecutionTime = 4.06098 s  ClockTime = 4 s

Time = 270s

smoothSolver:  Solving for Ux, Initial residual = 0.000231666, Final residual = 1.54344e-05, No Iterations 6
smoothSolver:  Solving for Uy, Initial residual = 0.00168578, Final residual = 0.000168281, No Iterations 5
GAMG:  Solving for p, Initial residual = 0.00222315, Final residual = 0.000170319, No Iterations 4
time step continuity errors : sum local = 0.00723786, global = -0.000602178, cumulative = 1.26717
smoothSolver:  Solving for epsilon, Initial residual = 0.000224417, Final residual = 1.51288e-05, No Iterations 3
smoothSolver:  Solving for k, Initial residual = 0.000385634, Final residual = 2.32848e-05, No Iterations 4
ExecutionTime = 4.0745 s  ClockTime = 4 s

Time = 271s

smoothSolver:  Solving for Ux, Initial residual = 0.000223122, Final residual = 1.47192e-05, No Iterations 6
smoothSolver:  Solving for Uy, Initial residual = 0.00165119, Final residual = 0.000163954, No Iterations 5
GAMG:  Solving for p, Initial residual = 0.00215653, Final residual = 0.000156837, No Iterations 4
time step continuity errors : sum local = 0.00666771, global = -0.000510779, cumulative = 1.26665
smoothSolver:  Solving for epsilon, Initial residual = 0.000215596, Final residual = 1.44585e-05, No Iterations 3
smoothSolver:  Solving for k, Initial residual = 0.000370429, Final residual = 2.23258e-05, No Iterations 4
ExecutionTime = 4.08791 s  ClockTime = 4 s

Time = 272s

smoothSolver:  Solving for Ux, Initial residual = 0.000214336, Final residual = 1.40423e-05, No Iterations 6
smoothSolver:  Solving for Uy, Initial residual = 0.00157778, Final residual = 0.000103486, No Iterations 6
GAMG:  Solving for p, Initial residual = 0.00174957, Final residual = 0.000152575, No Iterations 4
time step continuity errors : sum local = 0.00647711, global = -0.000250343, cumulative = 1.2664
smoothSolver:  Solving for epsilon, Initial residual = 0.000205345, Final residual = 1.37603e-05, No Iterations 3
smoothSolver:  Solving for k, Initial residual = 0.000356077, Final residual = 2.14865e-05, No Iterations 4
ExecutionTime = 4.10181 s  ClockTime = 4 s

Time = 273s

smoothSolver:  Solving for Ux, Initial residual = 0.000207043, Final residual = 1.34193e-05, No Iterations 6
smoothSolver:  Solving for Uy, Initial residual = 0.00152428, Final residual = 0.000151348, No Iterations 5
GAMG:  Solving for p, Initial residual = 0.00218068, Final residual = 0.000131877, No Iterations 4
time step continuity errors : sum local = 0.00559536, global = 0.000258986, cumulative = 1.26666
smoothSolver:  Solving for epsilon, Initial residual = 0.000197864, Final residual = 1.31873e-05, No Iterations 3
smoothSolver:  Solving for k, Initial residual = 0.000341944, Final residual = 2.06409e-05, No Iterations 4
ExecutionTime = 4.11599 s  ClockTime = 4 s

Time = 274s

smoothSolver:  Solving for Ux, Initial residual = 0.00019813, Final residual = 1.27562e-05, No Iterations 6
smoothSolver:  Solving for Uy, Initial residual = 0.00145863, Final residual = 9.60945e-05, No Iterations 6
GAMG:  Solving for p, Initial residual = 0.00176093, Final residual = 0.00013217, No Iterations 4
time step continuity errors : sum local = 0.00560808, global = 0.000660613, cumulative = 1.26732
smoothSolver:  Solving for epsilon, Initial residual = 0.000191849, Final residual = 1.26559e-05, No Iterations 3
smoothSolver:  Solving for k, Initial residual = 0.000329381, Final residual = 1.98785e-05, No Iterations 4
ExecutionTime = 4.12985 s  ClockTime = 4 s

Time = 275s

smoothSolver:  Solving for Ux, Initial residual = 0.000191246, Final residual = 1.90853e-05, No Iterations 5
smoothSolver:  Solving for Uy, Initial residual = 0.00139196, Final residual = 9.26251e-05, No Iterations 6
GAMG:  Solving for p, Initial residual = 0.00242156, Final residual = 0.000191729, No Iterations 3
time step continuity errors : sum local = 0.00813827, global = -0.00119178, cumulative = 1.26613
smoothSolver:  Solving for epsilon, Initial residual = 0.000186866, Final residual = 1.2117e-05, No Iterations 3
smoothSolver:  Solving for k, Initial residual = 0.000317282, Final residual = 1.91698e-05, No Iterations 4
ExecutionTime = 4.14311 s  ClockTime = 4 s

Time = 276s

smoothSolver:  Solving for Ux, Initial residual = 0.00018531, Final residual = 1.84043e-05, No Iterations 5
smoothSolver:  Solving for Uy, Initial residual = 0.00135933, Final residual = 8.88108e-05, No Iterations 6
GAMG:  Solving for p, Initial residual = 0.0018976, Final residual = 0.000142079, No Iterations 4
time step continuity errors : sum local = 0.00602483, global = 0.000684919, cumulative = 1.26682
smoothSolver:  Solving for epsilon, Initial residual = 0.000181026, Final residual = 1.15919e-05, No Iterations 3
smoothSolver:  Solving for k, Initial residual = 0.000305223, Final residual = 1.8416e-05, No Iterations 4
ExecutionTime = 4.15702 s  ClockTime = 5 s

Time = 277s

smoothSolver:  Solving for Ux, Initial residual = 0.000176534, Final residual = 1.74853e-05, No Iterations 5
smoothSolver:  Solving for Uy, Initial residual = 0.00127999, Final residual = 8.62056e-05, No Iterations 6
GAMG:  Solving for p, Initial residual = 0.00162999, Final residual = 0.000152449, No Iterations 4
time step continuity errors : sum local = 0.00645573, global = 0.000824597, cumulative = 1.26764
smoothSolver:  Solving for epsilon, Initial residual = 0.000175103, Final residual = 1.11496e-05, No Iterations 3
smoothSolver:  Solving for k, Initial residual = 0.00029341, Final residual = 1.77878e-05, No Iterations 4
ExecutionTime = 4.17034 s  ClockTime = 5 s

Time = 278s

smoothSolver:  Solving for Ux, Initial residual = 0.00016909, Final residual = 1.6689e-05, No Iterations 5
smoothSolver:  Solving for Uy, Initial residual = 0.00123828, Final residual = 8.4593e-05, No Iterations 6
GAMG:  Solving for p, Initial residual = 0.00164369, Final residual = 0.000149278, No Iterations 4
time step continuity errors : sum local = 0.00631627, global = 0.000776028, cumulative = 1.26842
smoothSolver:  Solving for epsilon, Initial residual = 0.000168782, Final residual = 1.08097e-05, No Iterations 3
smoothSolver:  Solving for k, Initial residual = 0.000282757, Final residual = 1.71635e-05, No Iterations 4
ExecutionTime = 4.18384 s  ClockTime = 5 s

Time = 279s

smoothSolver:  Solving for Ux, Initial residual = 0.000162637, Final residual = 1.59739e-05, No Iterations 5
smoothSolver:  Solving for Uy, Initial residual = 0.00121716, Final residual = 8.35843e-05, No Iterations 6
GAMG:  Solving for p, Initial residual = 0.00224028, Final residual = 0.000192035, No Iterations 3
time step continuity errors : sum local = 0.00813836, global = -0.000701795, cumulative = 1.26772
smoothSolver:  Solving for epsilon, Initial residual = 0.000162655, Final residual = 1.03891e-05, No Iterations 3
smoothSolver:  Solving for k, Initial residual = 0.000271468, Final residual = 1.65302e-05, No Iterations 4
ExecutionTime = 4.1969 s  ClockTime = 5 s

Time = 280s

smoothSolver:  Solving for Ux, Initial residual = 0.000156449, Final residual = 1.53467e-05, No Iterations 5
smoothSolver:  Solving for Uy, Initial residual = 0.00117888, Final residual = 8.21534e-05, No Iterations 6
GAMG:  Solving for p, Initial residual = 0.00140484, Final residual = 0.000107971, No Iterations 5
time step continuity errors : sum local = 0.00456684, global = -0.000341738, cumulative = 1.26737
smoothSolver:  Solving for epsilon, Initial residual = 0.000158778, Final residual = 1.00592e-05, No Iterations 3
smoothSolver:  Solving for k, Initial residual = 0.000262495, Final residual = 1.5978e-05, No Iterations 4
ExecutionTime = 4.21173 s  ClockTime = 5 s

Time = 281s

smoothSolver:  Solving for Ux, Initial residual = 0.000149234, Final residual = 1.45261e-05, No Iterations 5
smoothSolver:  Solving for Uy, Initial residual = 0.00115584, Final residual = 8.05425e-05, No Iterations 6
GAMG:  Solving for p, Initial residual = 0.00162279, Final residual = 0.000129594, No Iterations 4
time step continuity errors : sum local = 0.00547272, global = 0.000627528, cumulative = 1.268
smoothSolver:  Solving for epsilon, Initial residual = 0.000156074, Final residual = 9.85128e-06, No Iterations 3
smoothSolver:  Solving for k, Initial residual = 0.000254356, Final residual = 1.55084e-05, No Iterations 4
ExecutionTime = 4.22486 s  ClockTime = 5 s

Time = 282s

smoothSolver:  Solving for Ux, Initial residual = 0.000143798, Final residual = 1.40621e-05, No Iterations 5
smoothSolver:  Solving for Uy, Initial residual = 0.0011199, Final residual = 7.84078e-05, No Iterations 6
GAMG:  Solving for p, Initial residual = 0.00212537, Final residual = 0.000172213, No Iterations 3
time step continuity errors : sum local = 0.0072864, global = -0.000680873, cumulative = 1.26732
smoothSolver:  Solving for epsilon, Initial residual = 0.000153395, Final residual = 9.60172e-06, No Iterations 3
smoothSolver:  Solving for k, Initial residual = 0.000246638, Final residual = 1.49858e-05, No Iterations 4
ExecutionTime = 4.23776 s  ClockTime = 5 s

Time = 283s

smoothSolver:  Solving for Ux, Initial residual = 0.000138996, Final residual = 1.36599e-05, No Iterations 5
smoothSolver:  Solving for Uy, Initial residual = 0.00110506, Final residual = 7.61525e-05, No Iterations 6
GAMG:  Solving for p, Initial residual = 0.00132613, Final residual = 9.20901e-05, No Iterations 5
time step continuity errors : sum local = 0.00388806, global = -0.000310747, cumulative = 1.26701
smoothSolver:  Solving for epsilon, Initial residual = 0.000149318, Final residual = 9.44686e-06, No Iterations 3
smoothSolver:  Solving for k, Initial residual = 0.000239972, Final residual = 1.46331e-05, No Iterations 4
ExecutionTime = 4.25181 s  ClockTime = 5 s

Time = 284s

smoothSolver:  Solving for Ux, Initial residual = 0.000133194, Final residual = 1.30297e-05, No Iterations 5
smoothSolver:  Solving for Uy, Initial residual = 0.00108464, Final residual = 7.36194e-05, No Iterations 6
GAMG:  Solving for p, Initial residual = 0.00150027, Final residual = 0.000146876, No Iterations 3
time step continuity errors : sum local = 0.00619449, global = -0.000552138, cumulative = 1.26646
smoothSolver:  Solving for epsilon, Initial residual = 0.000145432, Final residual = 9.35678e-06, No Iterations 3
smoothSolver:  Solving for k, Initial residual = 0.000233982, Final residual = 1.42861e-05, No Iterations 4
ExecutionTime = 4.26462 s  ClockTime = 5 s

Time = 285s

smoothSolver:  Solving for Ux, Initial residual = 0.000129548, Final residual = 1.28258e-05, No Iterations 5
smoothSolver:  Solving for Uy, Initial residual = 0.00104805, Final residual = 7.11111e-05, No Iterations 6
GAMG:  Solving for p, Initial residual = 0.00200972, Final residual = 0.000171031, No Iterations 3
time step continuity errors : sum local = 0.00722678, global = -0.000658509, cumulative = 1.2658
smoothSolver:  Solving for epsilon, Initial residual = 0.000140554, Final residual = 9.19263e-06, No Iterations 3
smoothSolver:  Solving for k, Initial residual = 0.0002282, Final residual = 1.38695e-05, No Iterations 4
ExecutionTime = 4.2778 s  ClockTime = 5 s

Time = 286s

smoothSolver:  Solving for Ux, Initial residual = 0.000125096, Final residual = 1.24608e-05, No Iterations 5
smoothSolver:  Solving for Uy, Initial residual = 0.0010188, Final residual = 6.81386e-05, No Iterations 6
GAMG:  Solving for p, Initial residual = 0.00118609, Final residual = 0.000112305, No Iterations 4
time step continuity errors : sum local = 0.0047371, global = 0.00056367, cumulative = 1.26636
smoothSolver:  Solving for epsilon, Initial residual = 0.000139225, Final residual = 9.11165e-06, No Iterations 3
smoothSolver:  Solving for k, Initial residual = 0.00022273, Final residual = 1.35379e-05, No Iterations 4
ExecutionTime = 4.29168 s  ClockTime = 5 s

Time = 287s

smoothSolver:  Solving for Ux, Initial residual = 0.000121142, Final residual = 1.20788e-05, No Iterations 5
smoothSolver:  Solving for Uy, Initial residual = 0.00099302, Final residual = 6.61047e-05, No Iterations 6
GAMG:  Solving for p, Initial residual = 0.00147489, Final residual = 0.000142814, No Iterations 3
time step continuity errors : sum local = 0.00601548, global = -0.000572535, cumulative = 1.26579
smoothSolver:  Solving for epsilon, Initial residual = 0.000137857, Final residual = 9.07813e-06, No Iterations 3
smoothSolver:  Solving for k, Initial residual = 0.000219494, Final residual = 1.32899e-05, No Iterations 4
ExecutionTime = 4.30522 s  ClockTime = 5 s


SIMPLE solution converged in 287 iterations

streamlines streamlines write:
    Seeded 10 particles
    Sampled 12040 locations
End

